<?xml version="1.0" encoding="UTF-8"?>

<!-- generated on Fri Apr  9 18:54:15 2021 by Eclipse SUMO duarouter Version 1.8.0
<configuration xmlns:xsi="http://www.w3.org/2001/XMLSchema-instance" xsi:noNamespaceSchemaLocation="http://sumo.dlr.de/xsd/duarouterConfiguration.xsd">

    <input>
        <net-file value="/home/taekwon/Sumo/2021-04-09-18-54-10/osm.net.xml"/>
        <route-files value="/home/taekwon/Sumo/2021-04-09-18-54-10/osm.passenger.trips.xml"/>
    </input>

    <output>
        <output-file value="/home/taekwon/Sumo/2021-04-09-18-54-10/osm.passenger.trips.xml.tmp"/>
        <write-trips value="true"/>
    </output>

    <time>
        <begin value="0"/>
        <end value="3600"/>
    </time>

    <report>
        <no-warnings value="true"/>
        <ignore-errors value="true"/>
        <no-step-log value="true"/>
    </report>

</configuration>
-->

<routes xmlns:xsi="http://www.w3.org/2001/XMLSchema-instance" xsi:noNamespaceSchemaLocation="http://sumo.dlr.de/xsd/routes_file.xsd">
    <vType id="veh_passenger" vClass="passenger"/>
    <trip id="veh0" type="veh_passenger" depart="0.00" departLane="best" departSpeed="max" from="378453707#0" to="-183272472"/>
    <trip id="veh2" type="veh_passenger" depart="6.17" departLane="best" departSpeed="max" from="516417601#0" to="419812892"/>
    <trip id="veh3" type="veh_passenger" depart="9.25" departLane="best" departSpeed="max" from="717851360#0" to="-233651296#1"/>
    <trip id="veh4" type="veh_passenger" depart="12.34" departLane="best" from="218923160#4" to="-184444067#0"/>
    <trip id="veh5" type="veh_passenger" depart="15.42" departLane="best" from="170207591#1" to="220027347#1"/>
    <trip id="veh6" type="veh_passenger" depart="18.51" departLane="best" departSpeed="max" from="-184083250#4" to="-708672701"/>
    <trip id="veh7" type="veh_passenger" depart="21.59" departLane="best" departSpeed="max" from="378453707#0" to="228795484#1"/>
    <trip id="veh8" type="veh_passenger" depart="24.68" departLane="best" from="170403788#2" to="233652295#0"/>
    <trip id="veh9" type="veh_passenger" depart="27.76" departLane="best" from="608946830#0" to="-170207585#2"/>
    <trip id="veh10" type="veh_passenger" depart="30.85" departLane="best" from="517706841#3" to="420391197"/>
    <trip id="veh11" type="veh_passenger" depart="33.93" departLane="best" from="184083250#0" to="-419752056"/>
    <trip id="veh12" type="veh_passenger" depart="37.02" departLane="best" from="908694578#5" to="184083250#3"/>
    <trip id="veh13" type="veh_passenger" depart="40.10" departLane="best" departSpeed="max" from="-233651294#1" to="-233651326#1"/>
    <trip id="veh14" type="veh_passenger" depart="43.19" departLane="best" from="517706841#4" to="506252728"/>
    <trip id="veh15" type="veh_passenger" depart="46.27" departLane="best" from="233651285#1" to="908646367#7"/>
    <trip id="veh16" type="veh_passenger" depart="49.36" departLane="best" from="620604519" to="344663874"/>
    <trip id="veh17" type="veh_passenger" depart="52.44" departLane="best" from="620634304#0" to="233651326#0"/>
    <trip id="veh19" type="veh_passenger" depart="58.61" departLane="best" from="-233651275" to="170403804#0"/>
    <trip id="veh20" type="veh_passenger" depart="61.70" departLane="best" from="-233651324#1" to="184083181#1"/>
    <trip id="veh21" type="veh_passenger" depart="64.78" departLane="best" departSpeed="max" from="378453707#0" to="198691079#1"/>
    <trip id="veh22" type="veh_passenger" depart="67.87" departLane="best" from="198691084" to="117914848#2"/>
    <trip id="veh23" type="veh_passenger" depart="70.95" departLane="best" departSpeed="max" from="378453707#0" to="329995230#0"/>
    <trip id="veh24" type="veh_passenger" depart="74.04" departLane="best" from="-420345572" to="506246961"/>
    <trip id="veh25" type="veh_passenger" depart="77.12" departLane="best" departSpeed="max" from="-419812892" to="218769254#2"/>
    <trip id="veh26" type="veh_passenger" depart="80.21" departLane="best" departSpeed="max" from="919985574#0" to="355655439"/>
    <trip id="veh27" type="veh_passenger" depart="83.29" departLane="best" from="170403818#0" to="-184444067#0"/>
    <trip id="veh28" type="veh_passenger" depart="86.38" departLane="best" departSpeed="max" from="184083202#0" to="184083158#2"/>
    <trip id="veh29" type="veh_passenger" depart="89.46" departLane="best" from="156922852" to="782892487"/>
    <trip id="veh30" type="veh_passenger" depart="92.55" departLane="best" from="651229500" to="184083199#6"/>
    <trip id="veh31" type="veh_passenger" depart="95.63" departLane="best" departSpeed="max" from="378453707#0" to="218835937#3"/>
    <trip id="veh32" type="veh_passenger" depart="98.72" departLane="best" from="233651333#4" to="184083158#2"/>
    <trip id="veh33" type="veh_passenger" depart="101.80" departLane="best" departSpeed="max" from="26658460#0" to="620634305"/>
    <trip id="veh34" type="veh_passenger" depart="104.89" departLane="best" from="218919060#1" to="170207585#2"/>
    <trip id="veh35" type="veh_passenger" depart="107.97" departLane="best" from="919985574#1" to="220027347#10"/>
    <trip id="veh36" type="veh_passenger" depart="111.06" departLane="best" departSpeed="max" from="-233651294#1" to="-215843535#6"/>
    <trip id="veh37" type="veh_passenger" depart="114.14" departLane="best" from="-233651332#4" to="350127794#0"/>
    <trip id="veh38" type="veh_passenger" depart="117.23" departLane="best" from="517641017#2" to="218923156#1"/>
    <trip id="veh39" type="veh_passenger" depart="120.31" departLane="best" from="-228795468#3" to="218769254#3"/>
    <trip id="veh40" type="veh_passenger" depart="123.40" departLane="best" departSpeed="max" from="919985574#0" to="221975143#0"/>
    <trip id="veh41" type="veh_passenger" depart="126.48" departLane="best" from="913565824#3" to="620634303#5"/>
    <trip id="veh42" type="veh_passenger" depart="129.56" departLane="best" departSpeed="max" from="-170403780#1" to="474532059#4"/>
    <trip id="veh44" type="veh_passenger" depart="135.73" departLane="best" from="184083181#0-AddedOnRampEdge" to="360113078#1"/>
    <trip id="veh45" type="veh_passenger" depart="138.82" departLane="best" from="-233651333#2" to="218923184#2"/>
    <trip id="veh46" type="veh_passenger" depart="141.90" departLane="best" from="218960897#1" to="782892488#2"/>
    <trip id="veh47" type="veh_passenger" depart="144.99" departLane="best" from="620634305" to="184083158#2"/>
    <trip id="veh48" type="veh_passenger" depart="148.07" departLane="best" from="220027347#3" to="-420391196#1"/>
    <trip id="veh49" type="veh_passenger" depart="151.16" departLane="best" from="732213463#5" to="620634303#5"/>
    <trip id="veh50" type="veh_passenger" depart="154.24" departLane="best" from="184083199#10" to="355655430#1"/>
    <trip id="veh51" type="veh_passenger" depart="157.33" departLane="best" from="344663909#3" to="-381456432"/>
    <trip id="veh52" type="veh_passenger" depart="160.41" departLane="best" departSpeed="max" from="516417601#0" to="228795478#0"/>
    <trip id="veh53" type="veh_passenger" depart="163.50" departLane="best" from="517641011#0" to="221975143#2"/>
    <trip id="veh55" type="veh_passenger" depart="169.67" departLane="best" departSpeed="max" from="-170403804#2" to="73541403#9"/>
    <trip id="veh56" type="veh_passenger" depart="172.75" departLane="best" from="656122981#2" to="620634303#0"/>
    <trip id="veh57" type="veh_passenger" depart="175.84" departLane="best" from="184083199#7" to="-219696192"/>
    <trip id="veh58" type="veh_passenger" depart="178.92" departLane="best" from="656122981#1" to="782892487"/>
    <trip id="veh59" type="veh_passenger" depart="182.01" departLane="best" from="-233651288#1" to="219053199#5"/>
    <trip id="veh60" type="veh_passenger" depart="185.09" departLane="best" from="-228795481#1" to="517706841#2"/>
    <trip id="veh61" type="veh_passenger" depart="188.18" departLane="best" departSpeed="max" from="517583989" to="-329995227#1"/>
    <trip id="veh62" type="veh_passenger" depart="191.26" departLane="best" departSpeed="max" from="219696192" to="233651269"/>
    <trip id="veh63" type="veh_passenger" depart="194.35" departLane="best" from="184083181#0-AddedOnRampEdge" to="620634303#5"/>
    <trip id="veh64" type="veh_passenger" depart="197.43" departLane="best" from="218923160#4" to="156570776"/>
    <trip id="veh65" type="veh_passenger" depart="200.52" departLane="best" from="233651289#1" to="506252730"/>
    <trip id="veh66" type="veh_passenger" depart="203.60" departLane="best" from="-788674832" to="184083199#12"/>
    <trip id="veh67" type="veh_passenger" depart="206.69" departLane="best" departSpeed="max" from="919985574#0" to="378453707#2"/>
    <trip id="veh68" type="veh_passenger" depart="209.77" departLane="best" from="-245063632" to="170403780#0"/>
    <trip id="veh69" type="veh_passenger" depart="212.86" departLane="best" from="184083240#1" to="233651338#1"/>
    <trip id="veh70" type="veh_passenger" depart="215.94" departLane="best" from="170403818#2" to="170207591#0"/>
    <trip id="veh71" type="veh_passenger" depart="219.03" departLane="best" from="-228795484#0" to="350127794#11"/>
    <trip id="veh73" type="veh_passenger" depart="225.20" departLane="best" from="620634304#0" to="-228795484#1"/>
    <trip id="veh74" type="veh_passenger" depart="228.28" departLane="best" departSpeed="max" from="170207585#0" to="-329995231#1"/>
    <trip id="veh75" type="veh_passenger" depart="231.37" departLane="best" from="782892488#2" to="233651300#2"/>
    <trip id="veh76" type="veh_passenger" depart="234.45" departLane="best" from="219096264" to="616037664"/>
    <trip id="veh77" type="veh_passenger" depart="237.54" departLane="best" from="517706841#4" to="-517583989"/>
    <trip id="veh78" type="veh_passenger" depart="240.62" departLane="best" from="-233651300#1" to="218923160#4"/>
    <trip id="veh79" type="veh_passenger" depart="243.71" departLane="best" from="218923160#4" to="218960897#1"/>
    <trip id="veh80" type="veh_passenger" depart="246.79" departLane="best" from="474532059#4" to="419812891"/>
    <trip id="veh81" type="veh_passenger" depart="249.88" departLane="best" departSpeed="max" from="919985574#0" to="-233651327#1"/>
    <trip id="veh82" type="veh_passenger" depart="252.96" departLane="best" from="218919060#2" to="184083252"/>
    <trip id="veh83" type="veh_passenger" depart="256.04" departLane="best" from="620634304#0" to="184083112"/>
    <trip id="veh84" type="veh_passenger" depart="259.13" departLane="best" from="-517641007#1" to="218923188#1"/>
    <trip id="veh85" type="veh_passenger" depart="262.21" departLane="best" from="218923160#4" to="184083181#2"/>
    <trip id="veh86" type="veh_passenger" depart="265.30" departLane="best" departSpeed="max" from="218960897#0" to="620634303#5"/>
    <trip id="veh87" type="veh_passenger" depart="268.38" departLane="best" from="921796625" to="620634303#1"/>
    <trip id="veh88" type="veh_passenger" depart="271.47" departLane="best" from="913565824#2" to="73541403#3"/>
    <trip id="veh89" type="veh_passenger" depart="274.55" departLane="best" from="620634303#2" to="-420348552"/>
    <trip id="veh90" type="veh_passenger" depart="277.64" departLane="best" from="219747866#0" to="156922852"/>
    <trip id="veh91" type="veh_passenger" depart="280.72" departLane="best" from="218769254#0" to="913565824#3"/>
    <trip id="veh92" type="veh_passenger" depart="283.81" departLane="best" from="184083181#0-AddedOnRampEdge" to="616037664"/>
    <trip id="veh93" type="veh_passenger" depart="286.89" departLane="best" from="218960897#1-AddedOffRampEdge" to="218923156#3"/>
    <trip id="veh94" type="veh_passenger" depart="289.98" departLane="best" from="908694578#5" to="919117822#4"/>
    <trip id="veh95" type="veh_passenger" depart="293.06" departLane="best" from="233651327#2" to="474532059#2"/>
    <trip id="veh96" type="veh_passenger" depart="296.15" departLane="best" departSpeed="max" from="-419752058" to="184083187#1"/>
    <trip id="veh97" type="veh_passenger" depart="299.23" departLane="best" from="913565824#2" to="233651327#1"/>
    <trip id="veh98" type="veh_passenger" depart="302.32" departLane="best" departSpeed="max" from="-221975143#3" to="233651333#2"/>
    <trip id="veh99" type="veh_passenger" depart="305.40" departLane="best" from="220027347#4" to="620634303#5"/>
    <trip id="veh100" type="veh_passenger" depart="308.49" departLane="best" departSpeed="max" from="-419812891" to="829964067"/>
    <trip id="veh101" type="veh_passenger" depart="311.57" departLane="best" from="-233651280#0" to="-517583989"/>
    <trip id="veh102" type="veh_passenger" depart="314.66" departLane="best" from="329995227#2" to="419812891"/>
    <trip id="veh103" type="veh_passenger" depart="317.74" departLane="best" departSpeed="max" from="180190213#0" to="-318750942#0"/>
    <trip id="veh104" type="veh_passenger" depart="320.83" departLane="best" departSpeed="max" from="717851360#0" to="184083106#0"/>
    <trip id="veh105" type="veh_passenger" depart="323.91" departLane="best" from="329995227#1" to="344663892#0"/>
    <trip id="veh106" type="veh_passenger" depart="327.00" departLane="best" from="218923160#0-AddedOffRampEdge" to="233651333#0"/>
    <trip id="veh107" type="veh_passenger" depart="330.08" departLane="best" from="228795478#2" to="73550864#0"/>
    <trip id="veh108" type="veh_passenger" depart="333.17" departLane="best" departSpeed="max" from="183272472" to="218835937#3"/>
    <trip id="veh109" type="veh_passenger" depart="336.25" departLane="best" from="378453707#4" to="184083187#3"/>
    <trip id="veh110" type="veh_passenger" depart="339.34" departLane="best" departSpeed="max" from="184083202#0" to="517641017#4"/>
    <trip id="veh111" type="veh_passenger" depart="342.42" departLane="best" from="-233651263#1" to="218924602#7"/>
    <trip id="veh112" type="veh_passenger" depart="345.51" departLane="best" from="919985574#1" to="919261680"/>
    <trip id="veh113" type="veh_passenger" depart="348.59" departLane="best" from="-233651266" to="156922852"/>
    <trip id="veh114" type="veh_passenger" depart="351.68" departLane="best" from="184083181#0-AddedOnRampEdge" to="73550863#1"/>
    <trip id="veh115" type="veh_passenger" depart="354.76" departLane="best" from="656122990" to="620634304#0"/>
    <trip id="veh116" type="veh_passenger" depart="357.85" departLane="best" from="198691079#0" to="-419752056"/>
    <trip id="veh117" type="veh_passenger" depart="360.93" departLane="best" from="620634303#0" to="431903253"/>
    <trip id="veh118" type="veh_passenger" depart="364.02" departLane="best" from="350127794#1" to="913565824#4"/>
    <trip id="veh119" type="veh_passenger" depart="367.10" departLane="best" departSpeed="max" from="378453707#0" to="-170207591#1"/>
    <trip id="veh121" type="veh_passenger" depart="373.27" departLane="best" from="378453707#2" to="769110715#0"/>
    <trip id="veh122" type="veh_passenger" depart="376.35" departLane="best" from="-333725870" to="-245063608#1"/>
    <trip id="veh123" type="veh_passenger" depart="379.44" departLane="best" from="-233651327#2" to="233651275"/>
    <trip id="veh124" type="veh_passenger" depart="382.52" departLane="best" from="184083181#5" to="264034746#0"/>
    <trip id="veh125" type="veh_passenger" depart="385.61" departLane="best" from="469260694#6" to="-788674832"/>
    <trip id="veh126" type="veh_passenger" depart="388.69" departLane="best" departSpeed="max" from="378453707#0" to="184083158#2"/>
    <trip id="veh127" type="veh_passenger" depart="391.78" departLane="best" from="218923160#4" to="184083181#1"/>
    <trip id="veh129" type="veh_passenger" depart="397.95" departLane="best" departSpeed="max" from="378453707#0" to="184083158#2"/>
    <trip id="veh130" type="veh_passenger" depart="401.03" departLane="best" departSpeed="max" from="516417601#0" to="233651270#2"/>
    <trip id="veh131" type="veh_passenger" depart="404.12" departLane="best" from="218923188#0" to="-170403788#4"/>
    <trip id="veh132" type="veh_passenger" depart="407.20" departLane="best" departSpeed="max" from="-233651269" to="620634304#0"/>
    <trip id="veh133" type="veh_passenger" depart="410.29" departLane="best" from="732213463#1" to="233651263#0"/>
    <trip id="veh134" type="veh_passenger" depart="413.37" departLane="best" from="620634303#0" to="233651332#4"/>
    <trip id="veh135" type="veh_passenger" depart="416.46" departLane="best" from="-360113081#1" to="-329995227#0"/>
    <trip id="veh136" type="veh_passenger" depart="419.54" departLane="best" from="184083199#7" to="651229500"/>
    <trip id="veh137" type="veh_passenger" depart="422.63" departLane="best" from="517641017#4" to="620634303#5"/>
    <trip id="veh138" type="veh_passenger" depart="425.71" departLane="best" departSpeed="max" from="732213463#0" to="117914848#2"/>
    <trip id="veh139" type="veh_passenger" depart="428.80" departLane="best" from="184083106#2" to="-233651333#1"/>
    <trip id="veh140" type="veh_passenger" depart="431.88" departLane="best" from="517641011#1" to="620634304#0"/>
    <trip id="veh141" type="veh_passenger" depart="434.97" departLane="best" from="218919060#3" to="344663895#0"/>
    <trip id="veh142" type="veh_passenger" depart="438.05" departLane="best" departSpeed="max" from="-419752058" to="73541403#9"/>
    <trip id="veh143" type="veh_passenger" depart="441.14" departLane="best" from="620634304#1" to="908694578#2"/>
    <trip id="veh144" type="veh_passenger" depart="444.22" departLane="best" from="-180190213#1" to="517641011#0"/>
    <trip id="veh145" type="veh_passenger" depart="447.31" departLane="best" from="184083202#1" to="73550863#1"/>
    <trip id="veh146" type="veh_passenger" depart="450.39" departLane="best" from="517706841#0" to="620634303#5"/>
    <trip id="veh147" type="veh_passenger" depart="453.48" departLane="best" from="616037663#0" to="184083158#2"/>
    <trip id="veh148" type="veh_passenger" depart="456.56" departLane="best" from="517641011#6" to="-233652295#0"/>
    <trip id="veh149" type="veh_passenger" depart="459.65" departLane="best" from="620634304#2" to="620634303#5"/>
    <trip id="veh150" type="veh_passenger" depart="462.73" departLane="best" from="170403791" to="620604518#0"/>
    <trip id="veh151" type="veh_passenger" depart="465.82" departLane="best" from="218974504#0" to="184083199#0"/>
    <trip id="veh152" type="veh_passenger" depart="468.90" departLane="best" from="517641017#4" to="170403788#5"/>
    <trip id="veh153" type="veh_passenger" depart="471.99" departLane="best" from="-170403831#4" to="-517641007#1"/>
    <trip id="veh154" type="veh_passenger" depart="475.07" departLane="best" from="184083202#0-AddedOffRampEdge" to="620634303#5"/>
    <trip id="veh155" type="veh_passenger" depart="478.16" departLane="best" departSpeed="max" from="913565824#0" to="184083181#2"/>
    <trip id="veh156" type="veh_passenger" depart="481.24" departLane="best" departSpeed="max" from="378453707#0" to="218835937#3"/>
    <trip id="veh157" type="veh_passenger" depart="484.33" departLane="best" from="919261680" to="228795468#2"/>
    <trip id="veh158" type="veh_passenger" depart="487.41" departLane="best" from="913565824#3" to="-420391196#1"/>
    <trip id="veh159" type="veh_passenger" depart="490.50" departLane="best" departSpeed="max" from="913565824#0" to="184083158#2"/>
    <trip id="veh160" type="veh_passenger" depart="493.58" departLane="best" from="-233651332#1" to="218923184#2"/>
    <trip id="veh161" type="veh_passenger" depart="496.67" departLane="best" from="218769254#2" to="233651324#4"/>
    <trip id="veh164" type="veh_passenger" depart="505.92" departLane="best" from="233651289#0" to="474532059#4"/>
    <trip id="veh165" type="veh_passenger" depart="509.00" departLane="best" departSpeed="max" from="516417601#0" to="419752058"/>
    <trip id="veh166" type="veh_passenger" depart="512.09" departLane="best" departSpeed="max" from="198564930" to="-228795483"/>
    <trip id="veh167" type="veh_passenger" depart="515.17" departLane="best" from="378453707#2" to="184083240#0"/>
    <trip id="veh168" type="veh_passenger" depart="518.26" departLane="best" departSpeed="max" from="184083202#0" to="620634303#4"/>
    <trip id="veh169" type="veh_passenger" depart="521.34" departLane="best" from="474532059#0" to="184083187#3"/>
    <trip id="veh170" type="veh_passenger" depart="524.43" departLane="best" from="218919060#2" to="184083187#1"/>
    <trip id="veh171" type="veh_passenger" depart="527.51" departLane="best" from="-318750942#1" to="218919060#5"/>
    <trip id="veh172" type="veh_passenger" depart="530.60" departLane="best" from="824132484" to="419812892"/>
    <trip id="veh173" type="veh_passenger" depart="533.68" departLane="best" departSpeed="max" from="732213463#0" to="333555370#2"/>
    <trip id="veh174" type="veh_passenger" depart="536.77" departLane="best" from="184083199#12" to="233651269"/>
    <trip id="veh175" type="veh_passenger" depart="539.85" departLane="best" departSpeed="max" from="378453707#0" to="218924602#8"/>
    <trip id="veh176" type="veh_passenger" depart="542.94" departLane="best" departSpeed="max" from="218960897#0" to="156922852"/>
    <trip id="veh177" type="veh_passenger" depart="546.02" departLane="best" from="219096264" to="656122981#2"/>
    <trip id="veh178" type="veh_passenger" depart="549.11" departLane="best" from="517641017#4" to="-420361195#1"/>
    <trip id="veh179" type="veh_passenger" depart="552.19" departLane="best" from="-233651288#0" to="220027347#3"/>
    <trip id="veh180" type="veh_passenger" depart="555.28" departLane="best" departSpeed="max" from="378453707#0" to="184083250#3"/>
    <trip id="veh182" type="veh_passenger" depart="561.45" departLane="best" from="378453707#4" to="170403780#0"/>
    <trip id="veh183" type="veh_passenger" depart="564.53" departLane="best" from="-769668047#3" to="-183272472"/>
    <trip id="veh184" type="veh_passenger" depart="567.62" departLane="best" from="183272488" to="218974504#0"/>
    <trip id="veh185" type="veh_passenger" depart="570.70" departLane="best" from="620634303#2" to="-233651266"/>
    <trip id="veh186" type="veh_passenger" depart="573.79" departLane="best" from="218923156#3" to="350127794#1"/>
    <trip id="veh188" type="veh_passenger" depart="579.96" departLane="best" from="220027347#10" to="183272596"/>
    <trip id="veh189" type="veh_passenger" depart="583.04" departLane="best" departSpeed="max" from="378453707#0" to="-170207585#1"/>
    <trip id="veh190" type="veh_passenger" depart="586.13" departLane="best" departSpeed="max" from="516417601#0" to="613477341"/>
    <trip id="veh191" type="veh_passenger" depart="589.21" departLane="best" from="-420361195#3" to="788674832"/>
    <trip id="veh192" type="veh_passenger" depart="592.30" departLane="best" from="228795468#1" to="-218923156#4"/>
    <trip id="veh193" type="veh_passenger" depart="595.38" departLane="best" from="184083106#2" to="620634303#4"/>
    <trip id="veh194" type="veh_passenger" depart="598.47" departLane="best" from="218960897#1-AddedOffRampEdge" to="616037664"/>
    <trip id="veh195" type="veh_passenger" depart="601.55" departLane="best" from="378453707#4" to="913565824#5"/>
    <trip id="veh196" type="veh_passenger" depart="604.64" departLane="best" departSpeed="max" from="717851360#0" to="333555370#0"/>
    <trip id="veh197" type="veh_passenger" depart="607.72" departLane="best" from="469265198#0" to="220027347#1"/>
    <trip id="veh198" type="veh_passenger" depart="610.81" departLane="best" from="620634300" to="233651269"/>
    <trip id="veh199" type="veh_passenger" depart="613.89" departLane="best" departSpeed="max" from="732213463#0" to="517641011#6"/>
    <trip id="veh200" type="veh_passenger" depart="616.98" departLane="best" from="219096265" to="184083158#2"/>
    <trip id="veh201" type="veh_passenger" depart="620.06" departLane="best" from="184083104#1" to="350127794#9"/>
    <trip id="veh202" type="veh_passenger" depart="623.15" departLane="best" departSpeed="max" from="517583989" to="220027347#7"/>
    <trip id="veh203" type="veh_passenger" depart="626.23" departLane="best" from="360113081#3" to="184083181#0-AddedOnRampEdge"/>
    <trip id="veh204" type="veh_passenger" depart="629.31" departLane="best" from="-233651270#1" to="184083183#1"/>
    <trip id="veh205" type="veh_passenger" depart="632.40" departLane="best" from="184083181#5" to="184083199#8"/>
    <trip id="veh206" type="veh_passenger" depart="635.48" departLane="best" from="170403826#0" to="420383141#2"/>
    <trip id="veh207" type="veh_passenger" depart="638.57" departLane="best" from="218919060#4" to="228795481#1"/>
    <trip id="veh208" type="veh_passenger" depart="641.65" departLane="best" from="218923156#5" to="117784422"/>
    <trip id="veh209" type="veh_passenger" depart="644.74" departLane="best" from="218923160#0-AddedOffRampEdge" to="656122993"/>
    <trip id="veh210" type="veh_passenger" depart="647.82" departLane="best" departSpeed="max" from="26658460#0" to="420391187#0"/>
    <trip id="veh211" type="veh_passenger" depart="650.91" departLane="best" from="218769254#0" to="-170207585#2"/>
    <trip id="veh212" type="veh_passenger" depart="653.99" departLane="best" from="198564925#0" to="517641017#4"/>
    <trip id="veh214" type="veh_passenger" depart="660.16" departLane="best" from="218923160#0-AddedOffRampEdge" to="517641017#0"/>
    <trip id="veh215" type="veh_passenger" depart="663.25" departLane="best" from="233651300#1" to="264034746#0"/>
    <trip id="veh216" type="veh_passenger" depart="666.33" departLane="best" from="170403788#2" to="170207585#2"/>
    <trip id="veh217" type="veh_passenger" depart="669.42" departLane="best" from="218924602#3" to="-184443141#2"/>
    <trip id="veh218" type="veh_passenger" depart="672.50" departLane="best" from="184083240#0" to="419812892"/>
    <trip id="veh219" type="veh_passenger" depart="675.59" departLane="best" from="218919060#3" to="-420348552"/>
    <trip id="veh220" type="veh_passenger" depart="678.67" departLane="best" from="218974504#3" to="-329995227#0"/>
    <trip id="veh221" type="veh_passenger" depart="681.76" departLane="best" from="355655430#1" to="-184443140"/>
    <trip id="veh222" type="veh_passenger" depart="684.84" departLane="best" from="218835937#1" to="233651294#1"/>
    <trip id="veh223" type="veh_passenger" depart="687.93" departLane="best" departSpeed="max" from="-184083250#4" to="360113081#0"/>
    <trip id="veh224" type="veh_passenger" depart="691.01" departLane="best" from="-344663892#0" to="218924602#8"/>
    <trip id="veh225" type="veh_passenger" depart="694.10" departLane="best" from="-219053199#5" to="218769254#2"/>
    <trip id="veh227" type="veh_passenger" depart="700.27" departLane="best" departSpeed="max" from="516417601#0" to="218769254#2"/>
    <trip id="veh228" type="veh_passenger" depart="703.35" departLane="best" departSpeed="max" from="516417601#0" to="620634303#0"/>
    <trip id="veh229" type="veh_passenger" depart="706.44" departLane="best" departSpeed="max" from="-170403804#2" to="228795478#1"/>
    <trip id="veh230" type="veh_passenger" depart="709.52" departLane="best" departSpeed="max" from="378453707#0" to="616037664"/>
    <trip id="veh231" type="veh_passenger" depart="712.61" departLane="best" departSpeed="max" from="378453707#0" to="517641017#4"/>
    <trip id="veh232" type="veh_passenger" depart="715.69" departLane="best" from="908646367#6" to="-73550864#0"/>
    <trip id="veh233" type="veh_passenger" depart="718.78" departLane="best" from="233651338#2" to="170207582#1"/>
    <trip id="veh234" type="veh_passenger" depart="721.86" departLane="best" departSpeed="max" from="420361195#0" to="608946830#0"/>
    <trip id="veh235" type="veh_passenger" depart="724.95" departLane="best" departSpeed="max" from="-419812903" to="329995227#0"/>
    <trip id="veh236" type="veh_passenger" depart="728.03" departLane="best" departSpeed="max" from="516417601#0" to="-245063608#0"/>
    <trip id="veh238" type="veh_passenger" depart="734.20" departLane="best" from="-233651332#1" to="-184083250#2"/>
    <trip id="veh239" type="veh_passenger" depart="737.29" departLane="best" from="184083199#8" to="419812892"/>
    <trip id="veh240" type="veh_passenger" depart="740.37" departLane="best" from="908694578#6" to="218835937#3"/>
    <trip id="veh241" type="veh_passenger" depart="743.46" departLane="best" from="469260694#2" to="-233651280#0"/>
    <trip id="veh242" type="veh_passenger" depart="746.54" departLane="best" departSpeed="max" from="419752064" to="350127794#0"/>
    <trip id="veh243" type="veh_passenger" depart="749.63" departLane="best" from="-233651324#2" to="613477341"/>
    <trip id="veh244" type="veh_passenger" depart="752.71" departLane="best" from="-245063632" to="913565824#2"/>
    <trip id="veh245" type="veh_passenger" depart="755.79" departLane="best" from="517641011#1" to="184444068"/>
    <trip id="veh246" type="veh_passenger" depart="758.88" departLane="best" from="218923188#1" to="215843535#0"/>
    <trip id="veh247" type="veh_passenger" depart="761.96" departLane="best" from="220027347#7" to="184443140"/>
    <trip id="veh248" type="veh_passenger" depart="765.05" departLane="best" departSpeed="max" from="378453707#0" to="620634303#0"/>
    <trip id="veh249" type="veh_passenger" depart="768.13" departLane="best" from="420383159#1" to="218923184#2"/>
    <trip id="veh250" type="veh_passenger" depart="771.22" departLane="best" from="474532059#5" to="908646367#10"/>
    <trip id="veh251" type="veh_passenger" depart="774.30" departLane="best" from="184083181#2" to="616037664"/>
    <trip id="veh252" type="veh_passenger" depart="777.39" departLane="best" from="233651288#1" to="219053199#0"/>
    <trip id="veh253" type="veh_passenger" depart="780.47" departLane="best" from="218924602#3" to="517641007#0"/>
    <trip id="veh254" type="veh_passenger" depart="783.56" departLane="best" from="184083181#1" to="620634303#5"/>