<?xml version="1.0" encoding="UTF-8"?>

<!-- generated on Fri Apr  9 18:54:14 2021 by Eclipse SUMO polyconvert Version 1.8.0
<configuration xmlns:xsi="http://www.w3.org/2001/XMLSchema-instance" xsi:noNamespaceSchemaLocation="http://sumo.dlr.de/xsd/polyconvertConfiguration.xsd">

    <input>
        <net-file value="osm.net.xml"/>
        <osm-files value="osm_bbox.osm.xml"/>
        <osm.keep-full-type value="true"/>
        <type-file value="/usr/share/sumo/data/typemap/osmPolyconvert.typ.xml"/>
    </input>

    <output>
        <output-file value="osm.poly.xml"/>
    </output>

    <processing>
        <poi-layer-offset value="5"/>
    </processing>

    <report>
        <verbose value="true"/>
    </report>

</configuration>
-->

<additional xmlns:xsi="http://www.w3.org/2001/XMLSchema-instance" xsi:noNamespaceSchemaLocation="http://sumo.dlr.de/xsd/additional_file.xsd">
    <location netOffset="-320871.56,-4159012.89" convBoundary="-21474.24,-8610.72,11527.36,19122.69" origBoundary="126.723686,37.485335,127.104308,37.728544" projParameter="+proj=utm +zone=52 +ellps=WGS84 +datum=WGS84 +units=m +no_defs"/>

    <poly id="141779172" type="building.yes" color="255,230,230" fill="1" layer="-1.00" shape="513.893657,1016.623147 528.471516,1016.120540 527.120922,977.195057 512.542995,977.697663 513.893657,1016.623147"/>
    <poly id="141957146" type="building.yes" color="255,230,230" fill="1" layer="-1.00" shape="820.676432,1001.674866 848.765851,1001.626187 848.726373,982.932440 820.645962,982.992023 820.676432,1001.674866"/>
    <poly id="141957147" type="amenity.post_office" color="237,199,199" fill="1" layer="-1.00" shape="589.149290,1016.901379 538.701393,1020.107694 536.023816,978.235625 586.471968,975.029303 589.149290,1016.901379"/>
    <poly id="141957147#1" type="building.public" color="255,230,230" fill="1" layer="-1.00" shape="589.149290,1016.901379 538.701393,1020.107694 536.023816,978.235625 586.471968,975.029303 589.149290,1016.901379"/>
    <poly id="141957150" type="building.yes" color="255,230,230" fill="1" layer="-1.00" shape="611.164937,1005.204120 610.994313,981.672989 660.089691,981.304860 660.260176,1004.835988 611.164937,1005.204120"/>
    <poly id="141957163" type="historic.archaeological_site" color="128,255,128" fill="1" layer="-1.00" shape="986.856406,961.603384 984.223536,952.978714 1078.124578,952.050618 1077.746973,1010.618008 1055.430983,1010.819506 986.856406,961.603384"/>
    <poly id="141957167" type="building.yes" color="255,230,230" fill="1" layer="-1.00" shape="893.575056,982.734670 892.941746,947.090902 898.612517,946.991263 898.526474,942.164046 904.479880,942.058339 904.378106,936.498775 939.586293,935.875624 940.206767,970.931290 934.650832,971.028435 934.736855,975.855651 928.668656,975.963805 928.774216,982.111656 893.575056,982.734670"/>
    <poly id="141957172" type="building.commercial" color="255,230,230" fill="1" layer="-1.00" shape="533.269604,1073.577628 566.526808,1073.061475 567.040741,1106.787346 588.063710,1106.456934 588.623670,1143.145866 567.900845,1143.458721 568.240370,1165.798386 534.683010,1166.309915 533.269604,1073.577628"/>
    <poly id="141957173" type="building.yes" color="255,230,230" fill="1" layer="-1.00" shape="739.748418,965.670376 791.591645,964.056098 793.587356,1007.152877 741.170547,1008.790594 739.748418,965.670376"/>
    <poly id="141957175" type="building.yes" color="255,230,230" fill="1" layer="-1.00" shape="695.226543,1003.661921 694.117309,984.547112 711.184700,984.757270 710.454520,977.923464 717.126417,977.946484 718.693412,1002.735320 695.226543,1003.661921"/>
    <poly id="142096702" type="building.yes" color="255,230,230" fill="1" layer="-1.00" shape="379.789875,1141.071503 420.333552,1141.641083 420.834438,1107.060720 389.713006,1106.632234 380.047726,1123.103974 379.789875,1141.071503"/>
    <poly id="142096703" type="building.yes" color="255,230,230" fill="1" layer="-1.00" shape="1029.417923,1113.332232 1032.181879,1113.250685 1037.181058,1113.154452 1042.749283,1113.634374 1047.806272,1112.526689 1053.457868,1111.539457 1059.126013,1108.853377 1067.874719,1104.369371 1070.734401,1104.219174 1073.381314,1100.743159 1073.660044,1097.262473 1078.848168,1084.562248 1081.462042,1073.371551 1080.809556,1065.614655 1080.466708,1057.051820 1075.655269,1053.957925 1071.374096,1053.750087 1065.655517,1056.970101 1065.553971,1053.886122 1055.402592,1058.067200 1050.145692,1060.977579 1043.802137,1065.543181 1039.050272,1070.163425 1034.350656,1075.570742 1030.047248,1082.146292 1026.927328,1089.107182 1025.332791,1094.680963 1023.851833,1101.429043 1027.704025,1101.823687 1027.189741,1104.621154 1026.000188,1106.833649 1025.921008,1110.965030 1029.417923,1113.332232"/>
    <poly id="142096704" type="building.commercial" color="255,230,230" fill="1" layer="-1.00" shape="922.038213,845.011030 920.119752,804.243881 937.668999,803.422855 937.848146,807.237852 941.255777,807.086948 941.419416,810.591442 944.747316,810.431151 945.996315,836.903110 943.109567,837.031723 943.278211,840.769237 939.923826,840.930098 940.072675,844.157378 922.038213,845.011030"/>
    <poly id="142096705" type="building.yes" color="255,230,230" fill="1" layer="-1.00" shape="379.902630,945.785382 410.496404,946.302943 410.179269,964.804603 409.654851,995.422290 379.042904,995.693328 379.691091,958.112427 379.902630,945.785382"/>
    <poly id="142096706" type="building.yes" color="255,230,230" fill="1" layer="-1.00" shape="835.359665,946.874055 832.749035,927.780416 876.273800,921.882755 878.884331,940.976403 835.359665,946.874055"/>
    <poly id="181574566" type="building.yes" color="255,230,230" fill="1" layer="-1.00" shape="319.211994,544.303440 319.406105,545.109654 320.490069,549.482421 320.732410,550.476319 330.876298,547.981926 330.615097,546.932928 329.357802,541.897815 319.211994,544.303440"/>
    <poly id="181574566#1" type="historic.yes" color="128,255,128" fill="1" layer="-1.00" shape="319.211994,544.303440 319.406105,545.109654 320.490069,549.482421 320.732410,550.476319 330.876298,547.981926 330.615097,546.932928 329.357802,541.897815 319.211994,544.303440"/>
    <poly id="181574567" type="building.yes" color="255,230,230" fill="1" layer="-1.00" shape="287.758438,586.777947 289.277012,594.094299 307.021878,590.436906 305.503319,583.120551 287.758438,586.777947"/>
    <poly id="181574567#1" type="historic.yes" color="128,255,128" fill="1" layer="-1.00" shape="287.758438,586.777947 289.277012,594.094299 307.021878,590.436906 305.503319,583.120551 287.758438,586.777947"/>
    <poly id="181574569" type="building.yes" color="255,230,230" fill="1" layer="-1.00" shape="325.964533,564.861900 327.919270,573.556524 338.648716,571.171634 336.693751,562.465912 325.964533,564.861900"/>
    <poly id="181574569#1" type="historic.yes" color="128,255,128" fill="1" layer="-1.00" shape="325.964533,564.861900 327.919270,573.556524 338.648716,571.171634 336.693751,562.465912 325.964533,564.861900"/>
    <poly id="181574570" type="building.yes" color="255,230,230" fill="1" layer="-1.00" shape="378.512902,556.069631 381.209115,566.779832 384.267272,579.114132 367.073821,583.347846 368.428501,588.802715 392.530928,582.865967 378.779366,527.422453 354.641452,533.359997 337.860900,537.484958 338.402638,539.660246 339.176447,542.763046 355.973698,538.593322 373.069601,534.339489 378.512902,556.069631"/>
    <poly id="181574573" type="building.yes" color="255,230,230" fill="1" layer="-1.00" shape="311.216794,551.780441 310.346038,548.280085 310.123993,547.407865 319.406105,545.109654 320.490069,549.482421 311.216794,551.780441"/>
    <poly id="181574573#1" type="historic.yes" color="128,255,128" fill="1" layer="-1.00" shape="311.216794,551.780441 310.346038,548.280085 310.123993,547.407865 319.406105,545.109654 320.490069,549.482421 311.216794,551.780441"/>
    <poly id="184444066" type="leisure.park" color="207,245,201" fill="1" layer="-2.00" shape="1429.255575,1053.291525 1428.419365,1104.175416 1430.051884,1106.549417 1427.410135,1157.705119 1427.042112,1186.720603 1437.045019,1201.182180 1451.609355,1206.254301 1454.993224,1208.302157 1462.366472,1210.553197 1483.393037,1206.284012 1499.768361,1196.486149 1510.412807,1171.591214 1515.341587,1149.227655 1515.596885,1135.978391 1512.257338,1076.991223 1508.240850,1048.702421 1497.278947,1047.227560 1468.192729,1047.339810 1463.973161,1047.119349 1434.830652,1046.666757 1429.255575,1053.291525"/>
    <poly id="184444066#1" type="tourism.attraction" color="207,245,201" fill="1" layer="-2.00" shape="1429.255575,1053.291525 1428.419365,1104.175416 1430.051884,1106.549417 1427.410135,1157.705119 1427.042112,1186.720603 1437.045019,1201.182180 1451.609355,1206.254301 1454.993224,1208.302157 1462.366472,1210.553197 1483.393037,1206.284012 1499.768361,1196.486149 1510.412807,1171.591214 1515.341587,1149.227655 1515.596885,1135.978391 1512.257338,1076.991223 1508.240850,1048.702421 1497.278947,1047.227560 1468.192729,1047.339810 1463.973161,1047.119349 1434.830652,1046.666757 1429.255575,1053.291525"/>
    <poly id="196076053" type="aeroway.helipad" color="grey" fill="1" layer="-2.00" shape="389.932542,981.903945 401.989009,982.077123 402.264311,962.455128 390.207816,962.281947 389.932542,981.903945"/>
    <poly id="198561926" type="amenity.townhall" color="237,199,199" fill="1" layer="-1.00" shape="537.579388,672.871294 537.395708,647.508728 537.103681,624.091226 591.856203,623.700950 599.096777,623.445222 602.132086,623.646336 643.348529,622.926020 643.716427,672.063619 539.072564,672.861353 537.579388,672.871294"/>
    <poly id="198561926#1" type="building.yes" color="255,230,230" fill="1" layer="-1.00" shape="537.579388,672.871294 537.395708,647.508728 537.103681,624.091226 591.856203,623.700950 599.096777,623.445222 602.132086,623.646336 643.348529,622.926020 643.716427,672.063619 539.072564,672.861353 537.579388,672.871294"/>
    <poly id="198561929" type="amenity.library" color="237,199,199" fill="1" layer="-1.00" shape="501.551000,634.636907 501.381981,607.087061 502.367144,605.234131 513.760528,591.822660 515.301932,591.178902 532.955493,591.076385 542.366301,591.062525 551.776870,591.037580 562.343795,590.954452 570.572698,590.633023 571.563866,591.111250 581.763732,603.125381 584.937055,606.864839 572.970869,617.069153 566.012856,609.514595 564.693693,609.398671 555.446193,609.608815 555.522410,615.612988 529.360720,615.787603 529.275413,609.772524 521.988989,609.951589 521.482192,610.217831 517.544102,614.054860 517.370561,614.613663 517.565904,634.358710 501.551000,634.636907"/>
    <poly id="198561929#1" type="building.civic" color="255,230,230" fill="1" layer="-1.00" shape="501.551000,634.636907 501.381981,607.087061 502.367144,605.234131 513.760528,591.822660 515.301932,591.178902 532.955493,591.076385 542.366301,591.062525 551.776870,591.037580 562.343795,590.954452 570.572698,590.633023 571.563866,591.111250 581.763732,603.125381 584.937055,606.864839 572.970869,617.069153 566.012856,609.514595 564.693693,609.398671 555.446193,609.608815 555.522410,615.612988 529.360720,615.787603 529.275413,609.772524 521.988989,609.951589 521.482192,610.217831 517.544102,614.054860 517.370561,614.613663 517.565904,634.358710 501.551000,634.636907"/>
    <poly id="223158447" type="building.yes" color="255,230,230" fill="1" layer="-1.00" shape="301.100518,756.840415 341.934292,765.451937 330.356152,819.876011 289.522625,811.264554 301.100518,756.840415"/>
    <poly id="223158447#1" type="tourism.gallery" color="207,245,201" fill="1" layer="-2.00" shape="301.100518,756.840415 341.934292,765.451937 330.356152,819.876011 289.522625,811.264554 301.100518,756.840415"/>
    <poly id="223158459" type="building.yes" color="255,230,230" fill="1" layer="-1.00" shape="938.372900,1073.957421 924.569762,1074.320555 913.577786,1085.846730 917.329847,1116.538924 921.434618,1115.940076 923.663212,1147.697424 982.213118,1144.497020 979.775546,1108.758792 976.502918,1108.607053 976.058714,1101.089915 952.065576,1079.147332 943.358526,1080.633217 938.372900,1073.957421"/>
    <poly id="223165014" type="building.yes" color="255,230,230" fill="1" layer="-1.00" shape="665.262848,646.311301 663.673297,609.389229 671.107006,609.073904 670.204950,588.089628 685.548892,587.426546 686.768131,615.764167 676.271188,616.223078 677.552047,645.780519 665.262848,646.311301"/>
    <poly id="223165015" type="amenity.bank" color="237,199,199" fill="1" layer="-1.00" shape="864.860490,582.361678 901.904524,581.155045 921.298102,595.003601 931.551269,610.347374 927.683214,620.332810 922.228486,628.032160 866.732206,630.401171 864.860490,582.361678"/>
    <poly id="223165015#1" type="building.yes" color="255,230,230" fill="1" layer="-1.00" shape="864.860490,582.361678 901.904524,581.155045 921.298102,595.003601 931.551269,610.347374 927.683214,620.332810 922.228486,628.032160 866.732206,630.401171 864.860490,582.361678"/>
    <poly id="223165016" type="amenity.restaurant" color="237,199,199" fill="1" layer="-1.00" shape="1080.830099,658.574547 1105.189773,657.618835 1106.309714,685.925265 1081.941291,686.881166 1080.830099,658.574547"/>
    <poly id="223165016#1" type="building.yes" color="255,230,230" fill="1" layer="-1.00" shape="1080.830099,658.574547 1105.189773,657.618835 1106.309714,685.925265 1081.941291,686.881166 1080.830099,658.574547"/>
    <poly id="223166193" type="building.commercial" color="255,230,230" fill="1" layer="-1.00" shape="513.531008,952.998133 514.010139,955.141475 515.024214,957.095676 516.499706,958.729106 518.560268,960.039101 520.907508,960.710148 523.888510,960.856889 570.097960,953.667551 567.509895,936.471801 522.016232,943.257190 519.374209,944.080067 517.180011,945.181938 515.386857,946.852443 514.242996,948.719893 513.607831,950.820619 513.531008,952.998133"/>
    <poly id="223418200" type="building.yes" color="255,230,230" fill="1" layer="-1.00" shape="301.399556,653.880133 321.006218,702.170200 304.983095,708.621307 301.268512,699.453960 296.774504,701.271541 292.985422,691.928182 298.618335,689.653096 292.039301,673.453743 286.966877,675.494723 283.513688,666.976727 288.953974,664.783497 286.900778,659.721142 301.399556,653.880133"/>
    <poly id="223418691" type="building.church" color="255,230,230" fill="1" layer="-1.00" shape="344.069088,688.196124 345.907841,692.330601 353.001896,708.241358 354.534103,711.683058 360.582609,709.010512 358.939153,705.326979 379.526736,696.224324 384.754061,707.934617 387.623153,706.573944 392.358269,704.462584 396.761578,702.535996 399.214123,701.528444 394.172072,690.213799 407.389665,684.378376 403.703146,676.098492 400.016859,667.829705 386.151851,673.967722 381.072764,662.576173 378.864891,663.456344 374.454406,665.460804 369.710437,667.572364 367.356239,668.633312 372.630388,680.464705 351.867555,689.637760 350.038594,685.547476 344.069088,688.196124"/>
    <poly id="223418692" type="building.public" color="255,230,230" fill="1" layer="-1.00" shape="401.867634,746.353968 401.453476,739.024909 392.831912,728.087119 420.733270,702.441427 437.728197,701.309358 438.109411,719.007769 451.822939,718.967729 450.910951,782.475878 430.334972,782.674847 429.795893,745.752328 401.867634,746.353968"/>
    <poly id="233593617" type="building.yes" color="255,230,230" fill="1" layer="-1.00" shape="529.278374,761.372126 535.102539,761.413260 553.457549,760.662890 554.356191,751.096409 558.781251,751.001158 559.992201,705.037824 554.123835,704.997621 554.185072,695.526876 529.288827,695.363430 529.225702,704.334658 524.638764,704.300193 524.292655,751.432765 529.356758,751.468057 529.278374,761.372126"/>
    <poly id="233593618" type="building.yes" color="255,230,230" fill="1" layer="-1.00" shape="597.187967,795.079373 644.647830,793.802803 643.073919,757.202324 631.361143,758.231425 631.006638,754.076059 624.234539,754.743535 623.390191,751.642233 601.502663,752.901418 602.918279,758.321701 595.368928,759.005928 597.187967,795.079373"/>
    <poly id="233593620" type="building.yes" color="255,230,230" fill="1" layer="-1.00" shape="726.415500,590.155582 733.745621,589.953555 734.318806,610.445341 721.539706,610.797849 721.475752,608.234822 717.651713,608.339260 717.535970,604.189860 699.775986,604.682821 699.269066,586.454274 701.423988,586.396827 701.193919,578.164605 726.063514,577.485460 726.415500,590.155582"/>
    <poly id="233593621" type="building.yes" color="255,230,230" fill="1" layer="-1.00" shape="789.097834,624.853834 800.484701,624.686773 800.561949,629.924927 841.065505,629.343029 840.700615,604.139823 827.017008,604.345087 826.981979,601.481705 823.439628,601.535635 823.400305,598.472521 820.299583,598.516961 820.260727,595.886788 788.679372,596.343586 789.097834,624.853834"/>
    <poly id="233593623" type="building.yes" color="255,230,230" fill="1" layer="-1.00" shape="641.148154,729.301746 650.776984,727.928949 650.046269,718.197715 639.935464,721.401498 641.148154,729.301746"/>
    <poly id="233593624" type="building.yes" color="255,230,230" fill="1" layer="-1.00" shape="601.068670,715.488214 594.486730,706.926425 599.826055,700.450466 607.835993,708.848314 601.068670,715.488214"/>
    <poly id="233593625" type="building.yes" color="255,230,230" fill="1" layer="-1.00" shape="622.305391,732.438095 637.029600,731.732736 637.112892,723.282842 624.709698,723.027951 622.305391,732.438095"/>
    <poly id="233593626" type="building.yes" color="255,230,230" fill="1" layer="-1.00" shape="759.698883,1098.723538 758.573592,1050.090683 813.401540,1048.823080 813.673954,1060.673420 804.859979,1060.885098 804.917436,1098.495098 759.698883,1098.723538"/>
    <poly id="233593627" type="building.yes" color="255,230,230" fill="1" layer="-1.00" shape="647.917423,519.840858 632.757391,492.502538 640.302930,488.343732 641.957275,491.305495 663.144163,479.626299 666.111228,484.868901 669.874907,490.172078 663.154323,513.374060 647.917423,519.840858"/>
    <poly id="233593628" type="building.yes" color="255,230,230" fill="1" layer="-1.00" shape="771.665591,629.902234 761.309751,630.346903 760.552537,612.800921 746.956783,613.392974 747.701614,630.772704 725.992330,631.705770 726.818831,650.826650 772.479577,648.856862 771.665591,629.902234"/>
    <poly id="233593629" type="building.yes" color="255,230,230" fill="1" layer="-1.00" shape="636.500061,700.960182 650.046737,700.146968 649.451375,690.546039 635.628486,690.843434 636.500061,700.960182"/>
    <poly id="233593630" type="building.yes" color="255,230,230" fill="1" layer="-1.00" shape="853.635923,1003.331034 879.819269,1002.579636 878.423342,971.748014 853.533216,972.649238 853.635923,1003.331034"/>
    <poly id="233593632" type="building.yes" color="255,230,230" fill="1" layer="-1.00" shape="671.579374,728.391742 705.748876,727.912108 704.187343,703.789242 670.820542,705.028701 671.579374,728.391742"/>
    <poly id="233593633" type="building.yes" color="255,230,230" fill="1" layer="-1.00" shape="598.476345,734.638268 613.462659,733.794010 599.445423,718.897946 592.720817,721.773587 598.476345,734.638268"/>
    <poly id="233593634" type="building.yes" color="255,230,230" fill="1" layer="-1.00" shape="724.350972,704.954190 722.459410,673.700280 785.383116,669.916166 787.274680,701.181177 724.350972,704.954190"/>
    <poly id="233593635" type="building.yes" color="255,230,230" fill="1" layer="-1.00" shape="561.328775,807.773991 574.521456,802.427823 576.871532,796.660061 575.900471,775.766072 565.041576,774.179181 561.328775,807.773991"/>
    <poly id="233593636" type="building.yes" color="255,230,230" fill="1" layer="-1.00" shape="625.166589,720.031866 650.046269,718.197715 649.564770,701.977953 617.256906,703.971937 617.747755,714.873969 625.166589,720.031866"/>
    <poly id="233593637" type="building.yes" color="255,230,230" fill="1" layer="-1.00" shape="602.949531,718.300777 610.990252,728.130034 618.857850,729.914569 620.469880,725.983320 614.560463,724.034532 606.268617,714.854551 602.949531,718.300777"/>
    <poly id="233593638" type="building.yes" color="255,230,230" fill="1" layer="-1.00" shape="576.935482,720.803360 592.130442,717.745413 589.802874,706.494362 584.642428,692.540051 574.750490,693.185899 572.712340,694.561924 576.935482,720.803360"/>
    <poly id="233593639" type="building.yes" color="255,230,230" fill="1" layer="-1.00" shape="741.149695,594.012844 746.350912,593.845502 746.814328,608.411551 780.477042,607.354782 779.714724,583.403459 740.850688,584.627570 741.149695,594.012844"/>
    <poly id="233593642" type="building.yes" color="255,230,230" fill="1" layer="-1.00" shape="561.250786,773.772319 545.248509,769.698457 540.785353,792.652162 547.863959,794.320396 547.161717,798.232078 550.313941,798.941314 549.650871,804.672769 556.718239,805.819490 561.250786,773.772319"/>
    <poly id="233593643" type="building.residential" color="255,230,230" fill="1" layer="-1.00" shape="695.399901,1120.166515 705.654635,1119.979232 705.984963,1137.390094 752.982862,1136.501412 751.509251,1058.524171 719.968077,1059.124786 720.199090,1071.098137 694.478557,1071.584764 695.399901,1120.166515"/>
    <poly id="233593644" type="building.yes" color="255,230,230" fill="1" layer="-1.00" shape="651.772048,527.728676 655.961593,535.575987 657.521391,538.251152 659.522822,540.916818 661.578681,543.237173 666.319188,547.120570 670.305103,548.788837 675.072588,550.229371 679.533319,550.966021 684.634059,551.466881 694.379828,551.412688 693.658746,536.785572 692.230902,507.786362 669.874907,490.172078 663.154323,513.374060 647.917423,519.840858 651.772048,527.728676"/>
    <poly id="233593644#1" type="tourism.hotel" color="207,245,201" fill="1" layer="-2.00" shape="651.772048,527.728676 655.961593,535.575987 657.521391,538.251152 659.522822,540.916818 661.578681,543.237173 666.319188,547.120570 670.305103,548.788837 675.072588,550.229371 679.533319,550.966021 684.634059,551.466881 694.379828,551.412688 693.658746,536.785572 692.230902,507.786362 669.874907,490.172078 663.154323,513.374060 647.917423,519.840858 651.772048,527.728676"/>
    <poly id="233593645" type="building.yes" color="255,230,230" fill="1" layer="-1.00" shape="768.668044,1140.249408 765.876906,1137.833833 764.889591,1116.163097 767.839523,1113.635175 789.061549,1111.880022 792.243923,1114.409308 793.496128,1136.074348 790.816884,1138.862873 768.668044,1140.249408"/>
    <poly id="233593646" type="building.yes" color="255,230,230" fill="1" layer="-1.00" shape="606.740988,706.418486 602.030597,699.825756 601.813798,692.625667 633.625649,688.932694 633.751458,691.494391 631.153745,691.916627 631.412537,701.069644 613.051196,702.763582 613.250539,705.867661 606.740988,706.418486"/>
    <poly id="246436064" type="building.yes" color="255,230,230" fill="1" layer="-1.00" shape="2212.098066,674.481510 2212.291475,684.379650 2221.309656,684.198439 2222.783942,675.430363 2212.098066,674.481510"/>
    <poly id="256815224" type="building.commercial" color="255,230,230" fill="1" layer="-1.00" shape="838.886012,858.098851 908.338582,851.855102 906.264654,827.299185 836.405828,833.562772 838.886012,858.098851"/>
    <poly id="259850055" type="tourism.attraction" color="207,245,201" fill="1" layer="-2.00" shape="459.579698,1238.676129 468.336453,1238.687333 470.333427,1238.688725 477.084136,1238.687640 477.152574,1162.686416 470.728588,1162.680460 464.304841,1162.685605 464.295904,1167.603690 459.648113,1167.603890 459.579698,1238.676129"/>
    <poly id="259850108" type="amenity.fountain" color="237,199,199" fill="1" layer="-1.00" shape="460.446159,1152.555489 477.957937,1152.489145 471.118554,1086.428087 462.161369,1086.554405 460.446159,1152.555489"/>
    <poly id="259850109" type="tourism.attraction" color="207,245,201" fill="0" layer="-2.00" shape="452.723712,1246.505940 453.311393,1155.651028 453.507478,1125.784207 458.025437,1055.759574 458.408877,1049.767696 473.853175,1048.879983 474.585202,1054.969951 484.605680,1155.909499 486.327145,1304.763548"/>
    <poly id="263587835" type="amenity.studio" color="237,199,199" fill="1" layer="-1.00" shape="349.336613,816.580596 369.107634,851.612211 393.764512,837.814827 373.984738,802.783346 349.336613,816.580596"/>
    <poly id="263587835#1" type="building.yes" color="255,230,230" fill="1" layer="-1.00" shape="349.336613,816.580596 369.107634,851.612211 393.764512,837.814827 373.984738,802.783346 349.336613,816.580596"/>
    <poly id="263587971" type="building.commercial" color="255,230,230" fill="1" layer="-1.00" shape="318.110640,871.616873 350.688678,854.307113 343.281762,838.225482 334.051309,834.705470 305.911707,848.855644 318.110640,871.616873"/>
    <poly id="263588265" type="building.commercial" color="255,230,230" fill="1" layer="-1.00" shape="353.772548,788.698348 361.582791,755.015102 397.369741,798.849172 353.772548,788.698348"/>
    <poly id="26658456" type="building.yes" color="255,230,230" fill="1" layer="-1.00" shape="2070.133533,946.192687 2070.648939,938.877090 2071.997194,918.832833 2075.192603,871.895332 2075.594917,867.146529 2073.149561,867.254227 2073.468872,853.648433 2083.700546,854.440271 2102.165495,855.544872 2102.360042,855.551822 2097.523386,948.150288 2086.301607,947.745911 2086.052159,950.548739 2081.706083,950.197448 2082.018372,947.026939 2070.133533,946.192687"/>
    <poly id="26658456#1" type="shop.mall" color="237,199,255" fill="1" layer="-1.00" shape="2070.133533,946.192687 2070.648939,938.877090 2071.997194,918.832833 2075.192603,871.895332 2075.594917,867.146529 2073.149561,867.254227 2073.468872,853.648433 2083.700546,854.440271 2102.165495,855.544872 2102.360042,855.551822 2097.523386,948.150288 2086.301607,947.745911 2086.052159,950.548739 2081.706083,950.197448 2082.018372,947.026939 2070.133533,946.192687"/>
    <poly id="26658458" type="historic.castle" color="128,255,128" fill="1" layer="-1.00" shape="171.268603,493.196629 173.993145,488.819438 176.040361,478.850676 186.963574,460.042526 187.227818,459.592773 191.838114,451.689095 194.922541,449.246885 201.531080,447.949822 248.067165,450.454376 338.904716,461.262906 357.069467,461.903906 369.616983,460.634429 382.805445,458.352043 420.401178,452.368936 421.627887,458.037493 422.973493,464.302962 424.327930,470.568241 425.751366,477.165073 434.503627,475.289159 446.451787,519.636953 447.115756,634.166147 405.350753,634.854853 362.416497,635.413545 334.657538,641.018445 305.809880,648.178891 274.647197,661.084337 267.526610,664.035390 254.446931,682.412584 240.459557,683.280351 223.771820,684.317388 213.510583,712.092223 204.881176,729.074674 192.121522,741.383742 145.206498,742.540115 138.330023,738.370051 156.484534,657.049518 159.374377,639.447042 158.791060,629.201977 155.432332,569.360447 155.379064,536.168561 154.510346,511.464598 155.465789,508.646447 157.969546,505.095511 164.619070,499.146068 171.268603,493.196629"/>
    <poly id="26658458#1" type="leisure.park" color="207,245,201" fill="1" layer="-2.00" shape="171.268603,493.196629 173.993145,488.819438 176.040361,478.850676 186.963574,460.042526 187.227818,459.592773 191.838114,451.689095 194.922541,449.246885 201.531080,447.949822 248.067165,450.454376 338.904716,461.262906 357.069467,461.903906 369.616983,460.634429 382.805445,458.352043 420.401178,452.368936 421.627887,458.037493 422.973493,464.302962 424.327930,470.568241 425.751366,477.165073 434.503627,475.289159 446.451787,519.636953 447.115756,634.166147 405.350753,634.854853 362.416497,635.413545 334.657538,641.018445 305.809880,648.178891 274.647197,661.084337 267.526610,664.035390 254.446931,682.412584 240.459557,683.280351 223.771820,684.317388 213.510583,712.092223 204.881176,729.074674 192.121522,741.383742 145.206498,742.540115 138.330023,738.370051 156.484534,657.049518 159.374377,639.447042 158.791060,629.201977 155.432332,569.360447 155.379064,536.168561 154.510346,511.464598 155.465789,508.646447 157.969546,505.095511 164.619070,499.146068 171.268603,493.196629"/>
    <poly id="286257898" type="building.yes" color="255,230,230" fill="1" layer="-1.00" shape="1003.522967,711.455378 1002.239090,684.584527 1004.220727,677.692486 1031.057562,691.281555 1029.080910,698.406609 1025.911638,705.546166 1019.090706,708.057179 1010.389633,711.074818 1003.522967,711.455378"/>
    <poly id="286257898#1" type="tourism.yes" color="207,245,201" fill="1" layer="-2.00" shape="1003.522967,711.455378 1002.239090,684.584527 1004.220727,677.692486 1031.057562,691.281555 1029.080910,698.406609 1025.911638,705.546166 1019.090706,708.057179 1010.389633,711.074818 1003.522967,711.455378"/>
    <poly id="306381838" type="amenity.toilets" color="237,199,199" fill="1" layer="-1.00" shape="1435.938804,1064.160807 1436.242344,1057.293726 1459.025668,1058.293271 1458.721873,1065.149254 1435.938804,1064.160807"/>
    <poly id="306381838#1" type="building.yes" color="255,230,230" fill="1" layer="-1.00" shape="1435.938804,1064.160807 1436.242344,1057.293726 1459.025668,1058.293271 1458.721873,1065.149254 1435.938804,1064.160807"/>
    <poly id="320791141" type="building.yes" color="255,230,230" fill="1" layer="-1.00" shape="1497.553724,1102.972182 1494.728806,1113.823098 1504.058279,1116.232108 1506.883208,1105.381196 1497.553724,1102.972182"/>
    <poly id="320791141#1" type="tourism.attraction" color="207,245,201" fill="1" layer="-2.00" shape="1497.553724,1102.972182 1494.728806,1113.823098 1504.058279,1116.232108 1506.883208,1105.381196 1497.553724,1102.972182"/>
    <poly id="320791142" type="building.yes" color="255,230,230" fill="1" layer="-1.00" shape="1471.713708,1061.562819 1478.859978,1062.286767 1479.985808,1051.316817 1472.839291,1050.581771 1471.713708,1061.562819"/>
    <poly id="320791144" type="building.yes" color="255,230,230" fill="1" layer="-1.00" shape="1489.245459,1043.447547 1488.635722,1049.222157 1502.654482,1050.675952 1503.255396,1044.901533 1489.245459,1043.447547"/>