<?xml version="1.0" encoding="UTF-8"?>

<!-- generated on Tue Apr 27 19:56:31 2021 by Eclipse SUMO duarouter Version 1.8.0
<configuration xmlns:xsi="http://www.w3.org/2001/XMLSchema-instance" xsi:noNamespaceSchemaLocation="http://sumo.dlr.de/xsd/duarouterConfiguration.xsd">

    <input>
        <net-file value="seoul.net.xml"/>
        <route-files value="seoul.passenger.trips.xml"/>
    </input>

    <output>
        <output-file value="seoul.passenger.trips.xml.tmp"/>
        <write-trips value="true"/>
    </output>

    <time>
        <begin value="0"/>
        <end value="3600"/>
    </time>

    <report>
        <no-warnings value="true"/>
        <ignore-errors value="true"/>
        <no-step-log value="true"/>
    </report>

</configuration>
-->

<routes xmlns:xsi="http://www.w3.org/2001/XMLSchema-instance" xsi:noNamespaceSchemaLocation="http://sumo.dlr.de/xsd/routes_file.xsd">
    <vType id="veh_passenger" vClass="passenger"/>
    <trip id="veh0" type="veh_passenger" depart="0.00" departLane="best" departSpeed="max" from="717851360#2" to="-198564930"/>
    <trip id="veh1" type="veh_passenger" depart="3.08" departLane="best" departSpeed="max" from="198564930" to="198564925#0"/>
    <trip id="veh2" type="veh_passenger" depart="6.17" departLane="best" departSpeed="max" from="824132484" to="782892487"/>
    <trip id="veh3" type="veh_passenger" depart="9.25" departLane="best" from="gneE26" to="-219053199#2"/>
    <trip id="veh4" type="veh_passenger" depart="12.34" departLane="best" from="219053199#2" to="-198564930"/>
    <trip id="veh6" type="veh_passenger" depart="18.51" departLane="best" departSpeed="max" from="717851360#2" to="474532059#4"/>
    <trip id="veh7" type="veh_passenger" depart="21.59" departLane="best" from="184083199#0.274" to="517641026#2"/>
    <trip id="veh8" type="veh_passenger" depart="24.68" departLane="best" departSpeed="max" from="913565824#0" to="-180190213#3"/>
    <trip id="veh9" type="veh_passenger" depart="27.76" departLane="best" departSpeed="max" from="913565824#0" to="782892488#2"/>
    <trip id="veh10" type="veh_passenger" depart="30.85" departLane="best" from="218923156#1" to="184083183#0"/>
    <trip id="veh11" type="veh_passenger" depart="33.93" departLane="best" from="gneE33" to="218924602#0"/>
    <trip id="veh12" type="veh_passenger" depart="37.02" departLane="best" departSpeed="max" from="913565824#0" to="908646367#7"/>
    <trip id="veh13" type="veh_passenger" depart="40.10" departLane="best" from="474532059#5" to="gneE4"/>
    <trip id="veh14" type="veh_passenger" depart="43.19" departLane="best" from="218923188#1" to="474532059#5"/>
    <trip id="veh17" type="veh_passenger" depart="52.44" departLane="best" departSpeed="max" from="-233651288#0" to="218923156#4"/>
    <trip id="veh18" type="veh_passenger" depart="55.53" departLane="best" departSpeed="max" from="717851360#2" to="218974504#3"/>
    <trip id="veh19" type="veh_passenger" depart="58.61" departLane="best" from="218923160#4" to="184083199#7"/>
    <trip id="veh20" type="veh_passenger" depart="61.70" departLane="best" departSpeed="max" from="198564930" to="gneE37"/>
    <trip id="veh21" type="veh_passenger" depart="64.78" departLane="best" departSpeed="max" from="717851360#2" to="613477341"/>
    <trip id="veh22" type="veh_passenger" depart="67.87" departLane="best" departSpeed="max" from="184083181#6" to="219053199#2"/>
    <trip id="veh24" type="veh_passenger" depart="74.04" departLane="best" departSpeed="max" from="517641011#6" to="782892488#0"/>
    <trip id="veh26" type="veh_passenger" depart="80.21" departLane="best" from="218919060#1" to="218923156#0"/>
    <trip id="veh27" type="veh_passenger" depart="83.29" departLane="best" from="184083187#4" to="gneE37"/>
    <trip id="veh28" type="veh_passenger" depart="86.38" departLane="best" from="gneE24" to="218923188#1"/>
    <trip id="veh29" type="veh_passenger" depart="89.46" departLane="best" departSpeed="max" from="717851360#2" to="219053199#6"/>
    <trip id="veh30" type="veh_passenger" depart="92.55" departLane="best" departSpeed="max" from="gneE3" to="233651288#0"/>
    <trip id="veh31" type="veh_passenger" depart="95.63" departLane="best" from="198564925#3" to="218919060#1"/>
    <trip id="veh32" type="veh_passenger" depart="98.72" departLane="best" departSpeed="max" from="517641011#6" to="218919060#5"/>
    <trip id="veh33" type="veh_passenger" depart="101.80" departLane="best" from="517641017#5" to="gneE33"/>
    <trip id="veh36" type="veh_passenger" depart="111.06" departLane="best" from="-420361195#3" to="613477341"/>
    <trip id="veh37" type="veh_passenger" depart="114.14" departLane="best" departSpeed="max" from="913565824#0" to="219096264"/>
    <trip id="veh38" type="veh_passenger" depart="117.23" departLane="best" from="gneE41" to="469260694#3"/>
    <trip id="veh39" type="veh_passenger" depart="120.31" departLane="best" departSpeed="max" from="gneE34" to="gneE27"/>
    <trip id="veh40" type="veh_passenger" depart="123.40" departLane="best" from="-218923156#1" to="908646367#5"/>
    <trip id="veh41" type="veh_passenger" depart="126.48" departLane="best" departSpeed="max" from="732213463#8.123" to="469260694#5"/>
    <trip id="veh42" type="veh_passenger" depart="129.56" departLane="best" departSpeed="max" from="198564930" to="656122981#2"/>
    <trip id="veh43" type="veh_passenger" depart="132.65" departLane="best" from="-420361195#3" to="220027347#2"/>
    <trip id="veh45" type="veh_passenger" depart="138.82" departLane="best" departSpeed="max" from="gneE3" to="gneE27"/>
    <trip id="veh46" type="veh_passenger" depart="141.90" departLane="best" departSpeed="max" from="198564930" to="656122981#2"/>
    <trip id="veh47" type="veh_passenger" depart="144.99" departLane="best" from="517706841#3" to="184083183#0"/>
    <trip id="veh48" type="veh_passenger" depart="148.07" departLane="best" from="908646367#5" to="469260694#6"/>
    <trip id="veh49" type="veh_passenger" depart="151.16" departLane="best" from="908694578#6" to="469260694#3"/>
    <trip id="veh50" type="veh_passenger" depart="154.24" departLane="best" from="-218923156#0" to="218924602#0"/>
    <trip id="veh51" type="veh_passenger" depart="157.33" departLane="best" from="-218923156#4" to="gneE36"/>
    <trip id="veh52" type="veh_passenger" depart="160.41" departLane="best" from="gneE24" to="gneE23"/>
    <trip id="veh53" type="veh_passenger" depart="163.50" departLane="best" departSpeed="max" from="198564930" to="-218923156#1"/>
    <trip id="veh54" type="veh_passenger" depart="166.58" departLane="best" from="gneE24" to="gneE37"/>
    <trip id="veh55" type="veh_passenger" depart="169.67" departLane="best" from="-219096265" to="350127794#6"/>
    <trip id="veh56" type="veh_passenger" depart="172.75" departLane="best" departSpeed="max" from="-219053199#7" to="913565824#4"/>
    <trip id="veh57" type="veh_passenger" depart="175.84" departLane="best" from="908646367#6" to="184083117#0"/>
    <trip id="veh58" type="veh_passenger" depart="178.92" departLane="best" departSpeed="max" from="517641011#6" to="908646367#7"/>
    <trip id="veh59" type="veh_passenger" depart="182.01" departLane="best" from="184083187#2" to="218923188#0"/>
    <trip id="veh61" type="veh_passenger" depart="188.18" departLane="best" departSpeed="max" from="-788674832" to="198564925#1"/>
    <trip id="veh62" type="veh_passenger" depart="191.26" departLane="best" from="218923156#1" to="517641026#2"/>
    <trip id="veh64" type="veh_passenger" depart="197.43" departLane="best" departSpeed="max" from="-219053199#7" to="613477341"/>
    <trip id="veh65" type="veh_passenger" depart="200.52" departLane="best" from="184083199#7" to="gneE35"/>
    <trip id="veh66" type="veh_passenger" depart="203.60" departLane="best" from="919117822#2" to="-218923156#5"/>
    <trip id="veh67" type="veh_passenger" depart="206.69" departLane="best" from="184083199#0" to="184083122"/>
    <trip id="veh68" type="veh_passenger" depart="209.77" departLane="best" departSpeed="max" from="gneE3" to="517641017#4"/>
    <trip id="veh70" type="veh_passenger" depart="215.94" departLane="best" from="219053199#2" to="233651338#1"/>
    <trip id="veh71" type="veh_passenger" depart="219.03" departLane="best" departSpeed="max" from="824132484" to="782892487"/>
    <trip id="veh73" type="veh_passenger" depart="225.20" departLane="best" from="218974504#2" to="218924602#0"/>
    <trip id="veh74" type="veh_passenger" depart="228.28" departLane="best" from="919117822#2" to="218919060#1"/>
    <trip id="veh75" type="veh_passenger" depart="231.37" departLane="best" from="184083187#0" to="221975143#0"/>
    <trip id="veh76" type="veh_passenger" depart="234.45" departLane="best" from="198564925#1" to="gneE35"/>
    <trip id="veh77" type="veh_passenger" depart="237.54" departLane="best" from="219096265" to="gneE27"/>
    <trip id="veh78" type="veh_passenger" depart="240.62" departLane="best" departSpeed="max" from="517641011#6" to="-218923156#0"/>
    <trip id="veh79" type="veh_passenger" depart="243.71" departLane="best" from="gneE41" to="gneE24"/>
    <trip id="veh80" type="veh_passenger" depart="246.79" departLane="best" from="913565824#5" to="184083183#0"/>
    <trip id="veh81" type="veh_passenger" depart="249.88" departLane="best" departSpeed="max" from="420361195#0.464" to="184083199#8"/>
    <trip id="veh82" type="veh_passenger" depart="252.96" departLane="best" departSpeed="max" from="198564930" to="919117822#3"/>
    <trip id="veh84" type="veh_passenger" depart="259.13" departLane="best" from="gneE33" to="gneE41"/>
    <trip id="veh85" type="veh_passenger" depart="262.21" departLane="best" departSpeed="max" from="gneE34" to="517641017#5"/>
    <trip id="veh86" type="veh_passenger" depart="265.30" departLane="best" departSpeed="max" from="517641011#6" to="913565824#2"/>
    <trip id="veh87" type="veh_passenger" depart="268.38" departLane="best" departSpeed="max" from="-219053199#7" to="517641026#0"/>
    <trip id="veh88" type="veh_passenger" depart="271.47" departLane="best" from="420383141#2" to="gneE27"/>
    <trip id="veh89" type="veh_passenger" depart="274.55" departLane="best" from="-219096265" to="184083187#3"/>
    <trip id="veh90" type="veh_passenger" depart="277.64" departLane="best" from="517641026#0" to="782892487"/>
    <trip id="veh91" type="veh_passenger" depart="280.72" departLane="best" departSpeed="max" from="184444067#2" to="-506162633"/>
    <trip id="veh92" type="veh_passenger" depart="283.81" departLane="best" from="517641026#0" to="613477341"/>
    <trip id="veh93" type="veh_passenger" depart="286.89" departLane="best" from="219053199#2" to="517641026#0"/>
    <trip id="veh94" type="veh_passenger" depart="289.98" departLane="best" from="469260694#5" to="gneE37"/>
    <trip id="veh95" type="veh_passenger" depart="293.06" departLane="best" from="184083187#3" to="908646367#10"/>
    <trip id="veh96" type="veh_passenger" depart="296.15" departLane="best" departSpeed="max" from="184444067#2" to="219053199#6"/>
    <trip id="veh97" type="veh_passenger" depart="299.23" departLane="best" from="732213463#12" to="218923160#0-AddedOffRampEdge"/>
    <trip id="veh98" type="veh_passenger" depart="302.32" departLane="best" from="218919060#1" to="913565824#2"/>
    <trip id="veh99" type="veh_passenger" depart="305.40" departLane="best" departSpeed="max" from="198564930" to="gneE36"/>
    <trip id="veh100" type="veh_passenger" depart="308.49" departLane="best" from="gneE24" to="gneE27"/>
    <trip id="veh101" type="veh_passenger" depart="311.57" departLane="best" from="218923160#4" to="184083183#0"/>
    <trip id="veh102" type="veh_passenger" depart="314.66" departLane="best" from="913565824#2" to="782892488#3"/>
    <trip id="veh103" type="veh_passenger" depart="317.74" departLane="best" from="517706841#4" to="gneE4"/>
    <trip id="veh104" type="veh_passenger" depart="320.83" departLane="best" departSpeed="max" from="717851360#2" to="-180190213#3"/>
    <trip id="veh105" type="veh_passenger" depart="323.91" departLane="best" departSpeed="max" from="913565824#0" to="218923160#0-AddedOffRampEdge"/>
    <trip id="veh106" type="veh_passenger" depart="327.00" departLane="best" departSpeed="max" from="717851360#2" to="gneE37"/>
    <trip id="veh107" type="veh_passenger" depart="330.08" departLane="best" departSpeed="max" from="180190213#2" to="-420361195#3"/>
    <trip id="veh108" type="veh_passenger" depart="333.17" departLane="best" from="-329995230#1" to="517641017#0"/>
    <trip id="veh109" type="veh_passenger" depart="336.25" departLane="best" departSpeed="max" from="198564930" to="517706841#4"/>
    <trip id="veh111" type="veh_passenger" depart="342.42" departLane="best" from="420361195#3" to="gneE35"/>
    <trip id="veh112" type="veh_passenger" depart="345.51" departLane="best" from="913565824#4" to="-219053199#3"/>
    <trip id="veh113" type="veh_passenger" depart="348.59" departLane="best" from="-218923156#0" to="913565824#5"/>
    <trip id="veh114" type="veh_passenger" depart="351.68" departLane="best" departSpeed="max" from="824132484" to="474532059#5"/>
    <trip id="veh115" type="veh_passenger" depart="354.76" departLane="best" from="219053199#3" to="-184444067#2"/>
    <trip id="veh116" type="veh_passenger" depart="357.85" departLane="best" departSpeed="max" from="-219053199#7" to="gneE28"/>
    <trip id="veh117" type="veh_passenger" depart="360.93" departLane="best" departSpeed="max" from="gneE3" to="474532059#4.95"/>
    <trip id="veh118" type="veh_passenger" depart="364.02" departLane="best" from="913565824#3" to="517641026#0"/>
    <trip id="veh119" type="veh_passenger" depart="367.10" departLane="best" departSpeed="max" from="198564930" to="gneE33"/>
    <trip id="veh120" type="veh_passenger" depart="370.19" departLane="best" departSpeed="max" from="913565824#0" to="gneE27"/>
    <trip id="veh121" type="veh_passenger" depart="373.27" departLane="best" from="gneE29" to="184083199#7"/>
    <trip id="veh122" type="veh_passenger" depart="376.35" departLane="best" from="908694579" to="gneE29"/>
    <trip id="veh123" type="veh_passenger" depart="379.44" departLane="best" from="218974504#3" to="613477341"/>
    <trip id="veh124" type="veh_passenger" depart="382.52" departLane="best" from="184083172" to="gneE36"/>
    <trip id="veh125" type="veh_passenger" depart="385.61" departLane="best" from="919117822#3" to="gneE4"/>
    <trip id="veh126" type="veh_passenger" depart="388.69" departLane="best" departSpeed="max" from="913565824#0" to="gneE28"/>
    <trip id="veh127" type="veh_passenger" depart="391.78" departLane="best" from="218923156#0" to="gneE36"/>
    <trip id="veh128" type="veh_passenger" depart="394.86" departLane="best" departSpeed="max" from="913565824#0" to="gneE27"/>
    <trip id="veh129" type="veh_passenger" depart="397.95" departLane="best" departSpeed="max" from="913565824#0" to="218923156#0"/>
    <trip id="veh130" type="veh_passenger" depart="401.03" departLane="best" departSpeed="max" from="913565824#0" to="-219096265"/>
    <trip id="veh131" type="veh_passenger" depart="404.12" departLane="best" from="921796625" to="gneE27"/>
    <trip id="veh132" type="veh_passenger" depart="407.20" departLane="best" from="184083199#6" to="gneE22"/>
    <trip id="veh133" type="veh_passenger" depart="410.29" departLane="best" departSpeed="max" from="913565824#0" to="198564925#1"/>
    <trip id="veh134" type="veh_passenger" depart="413.37" departLane="best" from="-218923156#5" to="184083187#4"/>
    <trip id="veh135" type="veh_passenger" depart="416.46" departLane="best" from="218919060#4" to="gneE27"/>
    <trip id="veh136" type="veh_passenger" depart="419.54" departLane="best" departSpeed="max" from="gneE34" to="218923156#4"/>
    <trip id="veh137" type="veh_passenger" depart="422.63" departLane="best" departSpeed="max" from="717851360#2" to="219053199#6"/>
    <trip id="veh138" type="veh_passenger" depart="425.71" departLane="best" from="gneE30" to="-420361195#3"/>
    <trip id="veh140" type="veh_passenger" depart="431.88" departLane="best" departSpeed="max" from="gneE34" to="218923156#0"/>
    <trip id="veh141" type="veh_passenger" depart="434.97" departLane="best" departSpeed="max" from="824132484" to="218923188#1"/>
    <trip id="veh143" type="veh_passenger" depart="441.14" departLane="best" from="218923188#2" to="517641017#5"/>
    <trip id="veh144" type="veh_passenger" depart="444.22" departLane="best" from="198564925#2" to="788674832"/>
    <trip id="veh145" type="veh_passenger" depart="447.31" departLane="best" from="-218923156#0" to="gneE35"/>
    <trip id="veh146" type="veh_passenger" depart="450.39" departLane="best" departSpeed="max" from="517641011#6" to="908646367#5"/>
    <trip id="veh147" type="veh_passenger" depart="453.48" departLane="best" departSpeed="max" from="824132484" to="782892487"/>
    <trip id="veh148" type="veh_passenger" depart="456.56" departLane="best" departSpeed="max" from="717851360#2" to="218924602#0"/>
    <trip id="veh150" type="veh_passenger" depart="462.73" departLane="best" from="198564931" to="219053199#6"/>
    <trip id="veh151" type="veh_passenger" depart="465.82" departLane="best" departSpeed="max" from="gneE31" to="782892487"/>
    <trip id="veh152" type="veh_passenger" depart="468.90" departLane="best" from="gneE29" to="613477341"/>
    <trip id="veh153" type="veh_passenger" depart="471.99" departLane="best" departSpeed="max" from="198564930" to="474532059#4.95"/>
    <trip id="veh154" type="veh_passenger" depart="475.07" departLane="best" from="219053199#3" to="517641017#5"/>
    <trip id="veh155" type="veh_passenger" depart="478.16" departLane="best" departSpeed="max" from="717851360#2" to="233651338#0"/>
    <trip id="veh156" type="veh_passenger" depart="481.24" departLane="best" from="219096265" to="184083199#8"/>
    <trip id="veh160" type="veh_passenger" depart="493.58" departLane="best" departSpeed="max" from="717851360#2" to="218924602#0"/>
    <trip id="veh161" type="veh_passenger" depart="496.67" departLane="best" from="732213463#12" to="198564925#1"/>
    <trip id="veh162" type="veh_passenger" depart="499.75" departLane="best" from="184083187#2" to="-198564930"/>
    <trip id="veh163" type="veh_passenger" depart="502.83" departLane="best" from="198564925#0" to="350127794#0"/>
    <trip id="veh164" type="veh_passenger" depart="505.92" departLane="best" from="913565824#5" to="-218923156#5"/>
    <trip id="veh165" type="veh_passenger" depart="509.00" departLane="best" from="219053199#0" to="613477341"/>
    <trip id="veh166" type="veh_passenger" depart="512.09" departLane="best" from="420383141#0" to="218919060#0"/>
    <trip id="veh167" type="veh_passenger" depart="515.17" departLane="best" departSpeed="max" from="717851360#2" to="-180190213#3"/>
    <trip id="veh168" type="veh_passenger" depart="518.26" departLane="best" departSpeed="max" from="824132484" to="913565824#5"/>
    <trip id="veh169" type="veh_passenger" depart="521.34" departLane="best" from="-329995230#1" to="219096265"/>
    <trip id="veh170" type="veh_passenger" depart="524.43" departLane="best" departSpeed="max" from="184083181#6" to="gneE4"/>
    <trip id="veh171" type="veh_passenger" depart="527.51" departLane="best" from="469260694#4" to="-218923156#0"/>
    <trip id="veh172" type="veh_passenger" depart="530.60" departLane="best" from="198564925#1" to="gneE25"/>
    <trip id="veh173" type="veh_passenger" depart="533.68" departLane="best" from="233651288#0" to="gneE1"/>
    <trip id="veh174" type="veh_passenger" depart="536.77" departLane="best" from="732213463#10" to="gneE4"/>
    <trip id="veh175" type="veh_passenger" depart="539.85" departLane="best" from="517641026#2" to="gneE37"/>
    <trip id="veh176" type="veh_passenger" depart="542.94" departLane="best" from="gneE26" to="613477341"/>
    <trip id="veh177" type="veh_passenger" depart="546.02" departLane="best" from="913565824#2" to="474532059#4.95"/>
    <trip id="veh178" type="veh_passenger" depart="549.11" departLane="best" from="gneE28" to="908694579"/>
    <trip id="veh180" type="veh_passenger" depart="555.28" departLane="best" from="198564925#0" to="656122981#2"/>
    <trip id="veh181" type="veh_passenger" depart="558.36" departLane="best" from="908646367#6" to="469260694#0"/>
    <trip id="veh182" type="veh_passenger" depart="561.45" departLane="best" departSpeed="max" from="717851360#2" to="218923156#1"/>
    <trip id="veh183" type="veh_passenger" depart="564.53" departLane="best" departSpeed="max" from="-219053199#7" to="218923156#5"/>
    <trip id="veh184" type="veh_passenger" depart="567.62" departLane="best" departSpeed="max" from="517641011#6" to="184083175"/>
    <trip id="veh187" type="veh_passenger" depart="576.87" departLane="best" from="218974504#3" to="474532059#4"/>
    <trip id="veh188" type="veh_passenger" depart="579.96" departLane="best" from="219053199#2" to="gneE35"/>
    <trip id="veh189" type="veh_passenger" depart="583.04" departLane="best" from="517641017#5" to="782892488#2"/>
    <trip id="veh190" type="veh_passenger" depart="586.13" departLane="best" from="218923188#1" to="-180190213#3"/>
    <trip id="veh191" type="veh_passenger" depart="589.21" departLane="best" from="218923156#5" to="913565824#3"/>
    <trip id="veh192" type="veh_passenger" depart="592.30" departLane="best" from="919117822#1" to="gneE4"/>
    <trip id="veh193" type="veh_passenger" depart="595.38" departLane="best" from="219053199#2" to="913565824#2"/>
    <trip id="veh194" type="veh_passenger" depart="598.47" departLane="best" departSpeed="max" from="517641011#6" to="517706841#4"/>
    <trip id="veh195" type="veh_passenger" depart="601.55" departLane="best" from="184083199#0.274" to="198564925#0"/>
    <trip id="veh196" type="veh_passenger" depart="604.64" departLane="best" from="219053199#5" to="-198564930"/>
    <trip id="veh197" type="veh_passenger" depart="607.72" departLane="best" from="218923156#0" to="782892487"/>
    <trip id="veh198" type="veh_passenger" depart="610.81" departLane="best" from="218974504#2" to="184083183#0"/>
    <trip id="veh199" type="veh_passenger" depart="613.89" departLane="best" from="329995230#0" to="184083117#0"/>
    <trip id="veh200" type="veh_passenger" depart="616.98" departLane="best" departSpeed="max" from="717851360#2" to="-198564930"/>
    <trip id="veh201" type="veh_passenger" depart="620.06" departLane="best" from="218974504#1" to="517641017#2"/>
    <trip id="veh202" type="veh_passenger" depart="623.15" departLane="best" from="-218923156#5" to="732213463#10"/>
    <trip id="veh203" type="veh_passenger" depart="626.23" departLane="best" departSpeed="max" from="180190213#2" to="233651288#1"/>
    <trip id="veh204" type="veh_passenger" depart="629.31" departLane="best" from="184083187#4" to="218924602#0"/>
    <trip id="veh205" type="veh_passenger" depart="632.40" departLane="best" from="908646367#5" to="219053199#2"/>
    <trip id="veh206" type="veh_passenger" depart="635.48" departLane="best" departSpeed="max" from="824132484" to="gneE23"/>
    <trip id="veh207" type="veh_passenger" depart="638.57" departLane="best" from="198564925#1" to="-219053199#1"/>
    <trip id="veh208" type="veh_passenger" depart="641.65" departLane="best" from="-218923156#4" to="469260694#6"/>
    <trip id="veh209" type="veh_passenger" depart="644.74" departLane="best" from="gneE41" to="218974504#1"/>
    <trip id="veh210" type="veh_passenger" depart="647.82" departLane="best" departSpeed="max" from="717851360#2" to="913565824#3"/>
    <trip id="veh211" type="veh_passenger" depart="650.91" departLane="best" from="gneE32" to="184083199#0.274"/>
    <trip id="veh212" type="veh_passenger" depart="653.99" departLane="best" from="-218923156#4" to="184083183#0"/>
    <trip id="veh213" type="veh_passenger" depart="657.08" departLane="best" from="517641017#0" to="184083199#8"/>
    <trip id="veh214" type="veh_passenger" depart="660.16" departLane="best" from="73541403#11" to="913565824#4"/>
    <trip id="veh215" type="veh_passenger" depart="663.25" departLane="best" departSpeed="max" from="184083181#6" to="613477341"/>
    <trip id="veh216" type="veh_passenger" depart="666.33" departLane="best" departSpeed="max" from="824132484" to="-329995230#2"/>
    <trip id="veh217" type="veh_passenger" depart="669.42" departLane="best" departSpeed="max" from="913565824#0" to="gneE4"/>
    <trip id="veh218" type="veh_passenger" depart="672.50" departLane="best" from="-329995230#2" to="-198564930"/>
    <trip id="veh219" type="veh_passenger" depart="675.59" departLane="best" from="218919060#0" to="782892487"/>
    <trip id="veh220" type="veh_passenger" depart="678.67" departLane="best" departSpeed="max" from="gneE34" to="219053199#6"/>
    <trip id="veh222" type="veh_passenger" depart="684.84" departLane="best" departSpeed="max" from="732213463#8.123" to="613477341"/>
    <trip id="veh223" type="veh_passenger" depart="687.93" departLane="best" departSpeed="max" from="-788674832" to="gneE4"/>
    <trip id="veh224" type="veh_passenger" depart="691.01" departLane="best" from="913565824#5" to="gneE22"/>
    <trip id="veh225" type="veh_passenger" depart="694.10" departLane="best" from="-329995230#0" to="gneE4"/>
    <trip id="veh226" type="veh_passenger" depart="697.18" departLane="best" departSpeed="max" from="717851360#2" to="gneE22"/>
    <trip id="veh228" type="veh_passenger" depart="703.35" departLane="best" departSpeed="max" from="824132484" to="gneE4"/>
    <trip id="veh229" type="veh_passenger" depart="706.44" departLane="best" departSpeed="max" from="198564930" to="gneE1"/>
    <trip id="veh230" type="veh_passenger" depart="709.52" departLane="best" departSpeed="max" from="517641011#6" to="350127794#6"/>
    <trip id="veh231" type="veh_passenger" depart="712.61" departLane="best" from="219053199#5" to="908646367#7"/>
    <trip id="veh232" type="veh_passenger" depart="715.69" departLane="best" departSpeed="max" from="198564930" to="gneE26"/>
    <trip id="veh233" type="veh_passenger" depart="718.78" departLane="best" from="913565824#2" to="-219053199#2"/>
    <trip id="veh234" type="veh_passenger" depart="721.86" departLane="best" from="233651338#2" to="613477341"/>
    <trip id="veh235" type="veh_passenger" depart="724.95" departLane="best" from="218923188#1" to="-198564930"/>
    <trip id="veh236" type="veh_passenger" depart="728.03" departLane="best" from="184083199#0" to="gneE1"/>
    <trip id="veh237" type="veh_passenger" depart="731.12" departLane="best" from="218923156#1" to="gneE28"/>
    <trip id="veh238" type="veh_passenger" depart="734.20" departLane="best" from="-218923156#1" to="gneE37"/>
    <trip id="veh239" type="veh_passenger" depart="737.29" departLane="best" from="-219096265" to="908646367#5"/>
    <trip id="veh240" type="veh_passenger" depart="740.37" departLane="best" departSpeed="max" from="732213463#8.123" to="732213463#12"/>
    <trip id="veh241" type="veh_passenger" depart="743.46" departLane="best" from="420361195#3" to="921796625"/>
    <trip id="veh243" type="veh_passenger" depart="749.63" departLane="best" departSpeed="max" from="732213463#8.123" to="218923160#4"/>
    <trip id="veh244" type="veh_passenger" depart="752.71" departLane="best" from="474532059#4.95" to="219096265"/>
    <trip id="veh245" type="veh_passenger" depart="755.79" departLane="best" from="73541403#9" to="218923156#1"/>
    <trip id="veh246" type="veh_passenger" depart="758.88" departLane="best" from="198564925#1" to="-506162633"/>
    <trip id="veh247" type="veh_passenger" depart="761.96" departLane="best" from="474532059#5" to="913565824#4"/>
    <trip id="veh248" type="veh_passenger" depart="765.05" departLane="best" departSpeed="max" from="184083181#6" to="184083199#8"/>
    <trip id="veh249" type="veh_passenger" depart="768.13" departLane="best" departSpeed="max" from="420361195#0.464" to="908646367#6"/>
    <trip id="veh251" type="veh_passenger" depart="774.30" departLane="best" departSpeed="max" from="198564930" to="-219053199#5"/>
    <trip id="veh252" type="veh_passenger" depart="777.39" departLane="best" from="184083187#1" to="198564925#1"/>
    <trip id="veh253" type="veh_passenger" depart="780.47" departLane="best" departSpeed="max" from="184083181#6" to="-184444067#2"/>
    <trip id="veh254" type="veh_passenger" depart="783.56" departLane="best" from="474532059#5" to="218923156#1"/>
    <trip id="veh255" type="veh_passenger" depart="786.64" departLane="best" departSpeed="max" from="gneE34" to="517641017#0"/>
    <trip id="veh256" type="veh_passenger" depart="789.73" departLane="best" departSpeed="max" from="732213463#8.123" to="184083112"/>
    <trip id="veh257" type="veh_passenger" depart="792.81" departLane="best" from="919117822#4" to="350127794#6"/>
    <trip id="veh258" type="veh_passenger" depart="795.90" departLane="best" from="921796625" to="517641017#5"/>
    <trip id="veh259" type="veh_passenger" depart="798.98" departLane="best" from="329995230#1" to="221975143#0"/>
    <trip id="veh260" type="veh_passenger" depart="802.07" departLane="best" departSpeed="max" from="184083181#6" to="-218923156#0"/>
    <trip id="veh261" type="veh_passenger" depart="805.15" departLane="best" departSpeed="max" from="913565824#0" to="219053199#6"/>
    <trip id="veh262" type="veh_passenger" depart="808.24" departLane="best" departSpeed="max" from="-219053199#7" to="613477341"/>
    <trip id="veh263" type="veh_passenger" depart="811.32" departLane="best" departSpeed="max" from="-219053199#7" to="184083183#0"/>
    <trip id="veh264" type="veh_passenger" depart="814.41" departLane="best" departSpeed="max" from="517641011#6" to="218923160#4"/>
    <trip id="veh266" type="veh_passenger" depart="820.58" departLane="best" from="908646367#6" to="613477341"/>
    <trip id="veh267" type="veh_passenger" depart="823.66" departLane="best" departSpeed="max" from="913565824#0" to="198564925#1"/>
    <trip id="veh268" type="veh_passenger" depart="826.75" departLane="best" from="469260694#5" to="221975143#0"/>