<?xml version="1.0" encoding="UTF-8"?>

<!-- generated on Mon Jun  7 19:20:38 2021 by Eclipse SUMO duarouter Version 1.9.0
<configuration xmlns:xsi="http://www.w3.org/2001/XMLSchema-instance" xsi:noNamespaceSchemaLocation="http://sumo.dlr.de/xsd/duarouterConfiguration.xsd">

    <input>
        <net-file value="seoul.net.xml"/>
        <route-files value="flow3.xml"/>
    </input>

    <output>
        <output-file value="seoul.rou.xml"/>
        <alternatives-output value="seoul.rou.alt.xml"/>
    </output>

    <time>
        <begin value="0"/>
        <end value="3600"/>
    </time>

</configuration>
-->

<routes xmlns:xsi="http://www.w3.org/2001/XMLSchema-instance" xsi:noNamespaceSchemaLocation="http://sumo.dlr.de/xsd/routes_file.xsd">
    <vehicle id="11to16.0" depart="0.00">
        <route edges="gneE31 gneE53 73541403#11 73541403#12 219053199#0 219053199#3 219053199#5 219053199#6 -219053199#7 -219053199#5 -219053199#3 -219053199#2 -218923156#5 -218923156#4 -218923156#3 -218923156#1 184083174 218923188#1 218923188#2 469260694#0 gneE27"/>
    </vehicle>
    <vehicle id="11to2.0" depart="0.00">
        <route edges="gneE31 gneE53 73541403#11 73541403#12 219053199#0 184083119#0 218919060#3 218919060#4 218919060#5 gneE23 220027347#2 220027347#3 gneE22"/>
    </vehicle>
    <vehicle id="13to2.0" depart="0.00">
        <route edges="gneE34 gneE33 474532059#4 474532059#4.95 474532059#5 218919060#0 218919060#3 218919060#4 218919060#5 gneE23 220027347#2 220027347#3 gneE22"/>
    </vehicle>
    <vehicle id="13to4.0" depart="0.00">
        <route edges="gneE34 gneE33 474532059#4 474532059#4.95 184083117#0 -219053199#2 -218923156#5 -218923156#4 -218923156#3 -218923156#1 -218923156#0 219096264 198564925#0 198564925#1 198564925#2 198564925#3 782892488#0 782892488#1 782892488#2 782892488#3 184083183#0"/>
    </vehicle>
    <vehicle id="13to8.0" depart="0.00">
        <route edges="gneE34 gneE33 474532059#4 474532059#4.95 184083117#0 -219053199#2 -218923156#5 -218923156#4 -218923156#3 -218923156#1 -218923156#0 -219096265 gneE4"/>
    </vehicle>
    <vehicle id="16to7.0" depart="0.00">
        <route edges="-219053199#7 -219053199#5 -219053199#3 -219053199#2 -218923156#5 -218923156#4 -218923156#3 921796625 233651288#0 233651288#1 656122981#2 613477341"/>
    </vehicle>
    <vehicle id="16to8.0" depart="0.00">
        <route edges="-219053199#7 -219053199#5 -219053199#3 -219053199#2 -218923156#5 -218923156#4 -218923156#3 -218923156#1 -218923156#0 -219096265 gneE4"/>
    </vehicle>
    <vehicle id="17to7.0" depart="0.00">
        <route edges="717851360#2 517706841#0 517706841#2 517706841#3 517706841#4 gneE41 656122981#2 613477341"/>
    </vehicle>
    <vehicle id="17to8.0" depart="0.00">
        <route edges="717851360#2 517706841#0 517706841#2 517706841#3 517706841#4 gneE41 656122981#2 218974504#0 218974504#1 218974504#2 218974504#3 -219096265 gneE4"/>
    </vehicle>
    <vehicle id="17to8_2.0" depart="0.00">
        <route edges="717851360#2 184083199#0 184083199#0.274 184083199#6 -219053199#3 -219053199#2 -218923156#5 -218923156#4 -218923156#3 -218923156#1 -218923156#0 -219096265 gneE4"/>
    </vehicle>
    <vehicle id="1to9.0" depart="0.00">
        <route edges="180190213#2 517641017#0 517641017#2 517641017#4 517641017#5 184083199#0 184083199#0.274 184083199#6 -219053199#3 -219053199#2 -218923156#5 -218923156#4 -218923156#3 -218923156#1 184083174 218923188#1 218923188#2 -198564930"/>
    </vehicle>
    <vehicle id="2to13.0" depart="0.00">
        <route edges="517641011#6 517641017#0 517641017#2 517641017#4 517641017#5 184083199#0 184083199#0.274 184083199#6 184083199#7 184083199#8 gneE40 gneE36 gneE35"/>
    </vehicle>
    <vehicle id="2to8.0" depart="0.00">
        <route edges="517641011#6 517641017#0 517641017#2 517641017#4 517641017#5 184083199#0 184083199#0.274 184083199#6 -219053199#3 -219053199#2 -218923156#5 -218923156#4 -218923156#3 -218923156#1 -218923156#0 -219096265 gneE4"/>
    </vehicle>
    <vehicle id="3to13.0" depart="0.00">
        <route edges="732213463#8.123 732213463#10 732213463#12 732213463#18 732213463#19 908694578#0 908694578#2 908694578#3 908694578#5 908694578#6 350127794#0 350127794#1 350127794#4 350127794#5 gneE32 gneE35"/>
    </vehicle>
    <vehicle id="3to7.0" depart="0.00">
        <route edges="732213463#8.123 732213463#10 732213463#12 732213463#18 732213463#19 gneE41 656122981#2 613477341"/>
    </vehicle>
    <vehicle id="3to9.0" depart="0.00">
        <route edges="732213463#8.123 732213463#10 732213463#12 732213463#18 732213463#19 908694578#0 908694578#2 908694578#3 908694578#5 908694578#6 -218923156#5 -218923156#4 -218923156#3 -218923156#1 184083174 218923188#1 218923188#2 -198564930"/>
    </vehicle>
    <vehicle id="4to13.0" depart="0.00">
        <route edges="184083181#6 184083187#0 184083187#1 184083187#2 184083187#3 184083187#4 218974504#0 218974504#1 218974504#2 198564931 218923156#1 218923156#3 218923156#4 218923156#5 219053199#0 219053199#3 219053199#5 219053199#6 -219053199#7 184083112 184083199#8 gneE40 gneE36 gneE35"/>
    </vehicle>
    <vehicle id="4to16.0" depart="0.00">
        <route edges="184083181#6 184083187#0 184083187#1 184083187#2 184083187#3 184083187#4 218974504#0 218974504#1 218974504#2 198564931 218923156#1 218923156#3 218923156#4 218923156#5 219053199#0 219053199#3 219053199#5 219053199#6"/>
    </vehicle>
    <vehicle id="4to9.0" depart="0.00">
        <route edges="184083181#6 184083187#0 184083187#1 184083187#2 184083187#3 184083187#4 218974504#0 218974504#1 218974504#2 218974504#3 218923188#0 218923188#1 218923188#2 -198564930"/>
    </vehicle>
    <vehicle id="5to1.0" depart="0.00">
        <route edges="824132484 420383141#0 420383141#1 420383141#2 517641026#0 517641026#2 -180190213#3"/>
    </vehicle>
    <vehicle id="5to9.0" depart="0.00">
        <route edges="824132484 420383141#0 420383141#1 420383141#2 732213463#10 732213463#12 732213463#18 732213463#19 908694578#0 908694578#2 908694578#3 908694578#5 908694578#6 -218923156#5 -218923156#4 -218923156#3 -218923156#1 184083174 218923188#1 218923188#2 -198564930"/>
    </vehicle>
    <vehicle id="6to2.0" depart="0.00">
        <route edges="420361195#0.464 420361195#3 329995230#0 329995230#1 329995230#2 908646367#7 908646367#10 517641026#0 517641026#2 gneE22"/>
    </vehicle>
    <vehicle id="7to16.0" depart="0.00">
        <route edges="913565824#0 218974504#0 218974504#1 218974504#2 198564931 218923156#1 218923156#3 218923156#4 218923156#5 219053199#0 219053199#3 219053199#5 219053199#6"/>
    </vehicle>
    <vehicle id="7to17.0" depart="0.00">
        <route edges="913565824#0 913565824#2 913565824#3 913565824#4 919117822#1 919117822#2 919117822#3 919117822#4 782892487"/>
    </vehicle>
    <vehicle id="8to11.0" depart="0.00">
        <route edges="gneE3 219096265 218923156#0 218923156#1 218923156#3 218923156#4 218923156#5 219053199#0 219053199#3 219053199#5 219053199#6 -219053199#7 -219053199#5 -219053199#3 -219053199#2 350127794#0 350127794#1 350127794#4 350127794#5 350127794#6"/>
    </vehicle>
    <vehicle id="8to16.0" depart="0.00">
        <route edges="gneE3 219096265 218923156#0 218923156#1 218923156#3 218923156#4 218923156#5 219053199#0 219053199#3 219053199#5 219053199#6"/>
    </vehicle>
    <vehicle id="8to3.0" depart="0.00">
        <route edges="gneE3 219096265 218923156#0 218923156#1 218923156#3 218923156#4 218923156#5 908646367#0 gneE26 908646367#5 908646367#6 908646367#7 908646367#10 218924602#0"/>
    </vehicle>
    <vehicle id="8to4.0" depart="0.00">
        <route edges="gneE3 184083175 198564925#0 198564925#1 198564925#2 198564925#3 782892488#0 782892488#1 782892488#2 782892488#3 184083183#0"/>
    </vehicle>
    <vehicle id="9to10.0" depart="0.00">
        <route edges="198564930 469260694#0 gneE27"/>
    </vehicle>
    <vehicle id="9to14.0" depart="0.00">
        <route edges="198564930 469260694#0 469260694#3 469260694#4 469260694#5 469260694#6 gneE28 gneE32 gneE37"/>
    </vehicle>
    <vehicle id="9to16.0" depart="0.00">
        <route edges="198564930 218923160#0 218923160#0-AddedOffRampEdge 218923160#4 218923156#0 218923156#1 218923156#3 218923156#4 218923156#5 219053199#0 219053199#3 219053199#5 219053199#6"/>
    </vehicle>
    <vehicle id="9to17.0" depart="0.00">
        <route edges="198564930 218923160#0 218923160#0-AddedOffRampEdge 218923160#4 218923156#0 218923156#1 218923156#3 218923156#4 218923156#5 908646367#0 gneE26 919117822#1 919117822#2 919117822#3 919117822#4 782892487"/>
    </vehicle>
    <vehicle id="2to13.1" depart="3.44">
        <route edges="517641011#6 517641017#0 517641017#2 517641017#4 517641017#5 184083199#0 184083199#0.274 184083199#6 184083199#7 184083199#8 gneE40 gneE36 gneE35"/>
    </vehicle>
    <vehicle id="8to4.1" depart="4.12">
        <route edges="gneE3 184083175 198564925#0 198564925#1 198564925#2 198564925#3 782892488#0 782892488#1 782892488#2 782892488#3 184083183#0"/>
    </vehicle>
    <vehicle id="13to2.1" depart="5.91">
        <route edges="gneE34 gneE33 474532059#4 474532059#4.95 474532059#5 218919060#0 218919060#3 218919060#4 218919060#5 gneE23 220027347#2 220027347#3 gneE22"/>
    </vehicle>
    <vehicle id="2to13.2" depart="6.88">
        <route edges="517641011#6 517641017#0 517641017#2 517641017#4 517641017#5 184083199#0 184083199#0.274 184083199#6 184083199#7 184083199#8 gneE40 gneE36 gneE35"/>
    </vehicle>
    <vehicle id="16to8.1" depart="7.20">
        <route edges="-219053199#7 -219053199#5 -219053199#3 -219053199#2 -218923156#5 -218923156#4 -218923156#3 -218923156#1 -218923156#0 -219096265 gneE4"/>
    </vehicle>
    <vehicle id="11to2.1" depart="7.86">
        <route edges="gneE31 gneE53 73541403#11 73541403#12 219053199#0 184083119#0 218919060#3 218919060#4 218919060#5 gneE23 220027347#2 220027347#3 gneE22"/>
    </vehicle>
    <vehicle id="4to9.1" depart="8.22">
        <route edges="184083181#6 184083187#0 184083187#1 184083187#2 184083187#3 184083187#4 218974504#0 218974504#1 218974504#2 218974504#3 218923188#0 218923188#1 218923188#2 -198564930"/>
    </vehicle>
    <vehicle id="8to4.2" depart="8.25">
        <route edges="gneE3 184083175 198564925#0 198564925#1 198564925#2 198564925#3 782892488#0 782892488#1 782892488#2 782892488#3 184083183#0"/>
    </vehicle>
    <vehicle id="2to13.3" depart="10.32">
        <route edges="517641011#6 517641017#0 517641017#2 517641017#4 517641017#5 184083199#0 184083199#0.274 184083199#6 184083199#7 184083199#8 gneE40 gneE36 gneE35"/>
    </vehicle>
    <vehicle id="13to2.2" depart="11.82">
        <route edges="gneE34 gneE33 474532059#4 474532059#4.95 474532059#5 218919060#0 218919060#3 218919060#4 218919060#5 gneE23 220027347#2 220027347#3 gneE22"/>
    </vehicle>
    <vehicle id="8to4.3" depart="12.37">
        <route edges="gneE3 184083175 198564925#0 198564925#1 198564925#2 198564925#3 782892488#0 782892488#1 782892488#2 782892488#3 184083183#0"/>
    </vehicle>
    <vehicle id="2to13.4" depart="13.76">
        <route edges="517641011#6 517641017#0 517641017#2 517641017#4 517641017#5 184083199#0 184083199#0.274 184083199#6 184083199#7 184083199#8 gneE40 gneE36 gneE35"/>
    </vehicle>
    <vehicle id="16to8.2" depart="14.40">
        <route edges="-219053199#7 -219053199#5 -219053199#3 -219053199#2 -218923156#5 -218923156#4 -218923156#3 -218923156#1 -218923156#0 -219096265 gneE4"/>
    </vehicle>
    <vehicle id="1to9.1" depart="15.00">
        <route edges="180190213#2 517641017#0 517641017#2 517641017#4 517641017#5 184083199#0 184083199#0.274 184083199#6 -219053199#3 -219053199#2 -218923156#5 -218923156#4 -218923156#3 -218923156#1 184083174 218923188#1 218923188#2 -198564930"/>
    </vehicle>
    <vehicle id="11to2.2" depart="15.72">
        <route edges="gneE31 gneE53 73541403#11 73541403#12 219053199#0 184083119#0 218919060#3 218919060#4 218919060#5 gneE23 220027347#2 220027347#3 gneE22"/>
    </vehicle>
    <vehicle id="4to16.1" depart="16.07">
        <route edges="184083181#6 184083187#0 184083187#1 184083187#2 184083187#3 184083187#4 218974504#0 218974504#1 218974504#2 198564931 218923156#1 218923156#3 218923156#4 218923156#5 219053199#0 219053199#3 219053199#5 219053199#6"/>
    </vehicle>
    <vehicle id="4to13.1" depart="16.14">
        <route edges="184083181#6 184083187#0 184083187#1 184083187#2 184083187#3 184083187#4 218974504#0 218974504#1 218974504#2 198564931 218923156#1 218923156#3 218923156#4 218923156#5 219053199#0 219053199#3 219053199#5 219053199#6 -219053199#7 184083112 184083199#8 gneE40 gneE36 gneE35"/>
    </vehicle>
    <vehicle id="4to9.2" depart="16.44">
        <route edges="184083181#6 184083187#0 184083187#1 184083187#2 184083187#3 184083187#4 218974504#0 218974504#1 218974504#2 218974504#3 218923188#0 218923188#1 218923188#2 -198564930"/>
    </vehicle>
    <vehicle id="8to4.4" depart="16.49">
        <route edges="gneE3 184083175 198564925#0 198564925#1 198564925#2 198564925#3 782892488#0 782892488#1 782892488#2 782892488#3 184083183#0"/>
    </vehicle>
    <vehicle id="2to13.5" depart="17.21">
        <route edges="517641011#6 517641017#0 517641017#2 517641017#4 517641017#5 184083199#0 184083199#0.274 184083199#6 184083199#7 184083199#8 gneE40 gneE36 gneE35"/>
    </vehicle>
    <vehicle id="13to2.3" depart="17.73">
        <route edges="gneE34 gneE33 474532059#4 474532059#4.95 474532059#5 218919060#0 218919060#3 218919060#4 218919060#5 gneE23 220027347#2 220027347#3 gneE22"/>
    </vehicle>
    <vehicle id="13to8.1" depart="18.00">
        <route edges="gneE34 gneE33 474532059#4 474532059#4.95 184083117#0 -219053199#2 -218923156#5 -218923156#4 -218923156#3 -218923156#1 -218923156#0 -219096265 gneE4"/>
    </vehicle>
    <vehicle id="5to9.1" depart="18.00">
        <route edges="824132484 420383141#0 420383141#1 420383141#2 732213463#10 732213463#12 732213463#18 732213463#19 908694578#0 908694578#2 908694578#3 908694578#5 908694578#6 -218923156#5 -218923156#4 -218923156#3 -218923156#1 184083174 218923188#1 218923188#2 -198564930"/>
    </vehicle>
    <vehicle id="7to17.1" depart="18.00">
        <route edges="913565824#0 913565824#2 913565824#3 913565824#4 919117822#1 919117822#2 919117822#3 919117822#4 782892487"/>
    </vehicle>
    <vehicle id="13to4.1" depart="20.57">
        <route edges="gneE34 gneE33 474532059#4 474532059#4.95 184083117#0 -219053199#2 -218923156#5 -218923156#4 -218923156#3 -218923156#1 -218923156#0 219096264 198564925#0 198564925#1 198564925#2 198564925#3 782892488#0 782892488#1 782892488#2 782892488#3 184083183#0"/>
    </vehicle>
    <vehicle id="8to4.5" depart="20.62">
        <route edges="gneE3 184083175 198564925#0 198564925#1 198564925#2 198564925#3 782892488#0 782892488#1 782892488#2 782892488#3 184083183#0"/>
    </vehicle>
    <vehicle id="2to13.6" depart="20.65">
        <route edges="517641011#6 517641017#0 517641017#2 517641017#4 517641017#5 184083199#0 184083199#0.274 184083199#6 184083199#7 184083199#8 gneE40 gneE36 gneE35"/>
    </vehicle>
    <vehicle id="16to8.3" depart="21.60">
        <route edges="-219053199#7 -219053199#5 -219053199#3 -219053199#2 -218923156#5 -218923156#4 -218923156#3 -218923156#1 -218923156#0 -219096265 gneE4"/>
    </vehicle>
    <vehicle id="8to16.1" depart="22.50">
        <route edges="gneE3 219096265 218923156#0 218923156#1 218923156#3 218923156#4 218923156#5 219053199#0 219053199#3 219053199#5 219053199#6"/>
    </vehicle>
    <vehicle id="11to2.3" depart="23.58">
        <route edges="gneE31 gneE53 73541403#11 73541403#12 219053199#0 184083119#0 218919060#3 218919060#4 218919060#5 gneE23 220027347#2 220027347#3 gneE22"/>
    </vehicle>
    <vehicle id="13to2.4" depart="23.64">
        <route edges="gneE34 gneE33 474532059#4 474532059#4.95 474532059#5 218919060#0 218919060#3 218919060#4 218919060#5 gneE23 220027347#2 220027347#3 gneE22"/>
    </vehicle>
    <vehicle id="2to8.1" depart="24.00">
        <route edges="517641011#6 517641017#0 517641017#2 517641017#4 517641017#5 184083199#0 184083199#0.274 184083199#6 -219053199#3 -219053199#2 -218923156#5 -218923156#4 -218923156#3 -218923156#1 -218923156#0 -219096265 gneE4"/>
    </vehicle>
    <vehicle id="2to13.7" depart="24.09">
        <route edges="517641011#6 517641017#0 517641017#2 517641017#4 517641017#5 184083199#0 184083199#0.274 184083199#6 184083199#7 184083199#8 gneE40 gneE36 gneE35"/>
    </vehicle>
    <vehicle id="4to9.3" depart="24.66">
        <route edges="184083181#6 184083187#0 184083187#1 184083187#2 184083187#3 184083187#4 218974504#0 218974504#1 218974504#2 218974504#3 218923188#0 218923188#1 218923188#2 -198564930"/>
    </vehicle>
    <vehicle id="8to4.6" depart="24.74">
        <route edges="gneE3 184083175 198564925#0 198564925#1 198564925#2 198564925#3 782892488#0 782892488#1 782892488#2 782892488#3 184083183#0"/>
    </vehicle>
    <vehicle id="2to13.8" depart="27.53">
        <route edges="517641011#6 517641017#0 517641017#2 517641017#4 517641017#5 184083199#0 184083199#0.274 184083199#6 184083199#7 184083199#8 gneE40 gneE36 gneE35"/>
    </vehicle>
    <vehicle id="16to8.4" depart="28.80">
        <route edges="-219053199#7 -219053199#5 -219053199#3 -219053199#2 -218923156#5 -218923156#4 -218923156#3 -218923156#1 -218923156#0 -219096265 gneE4"/>
    </vehicle>
    <vehicle id="8to4.7" depart="28.86">
        <route edges="gneE3 184083175 198564925#0 198564925#1 198564925#2 198564925#3 782892488#0 782892488#1 782892488#2 782892488#3 184083183#0"/>
    </vehicle>
    <vehicle id="13to2.5" depart="29.56">
        <route edges="gneE34 gneE33 474532059#4 474532059#4.95 474532059#5 218919060#0 218919060#3 218919060#4 218919060#5 gneE23 220027347#2 220027347#3 gneE22"/>
    </vehicle>
    <vehicle id="1to9.2" depart="30.00">
        <route edges="180190213#2 517641017#0 517641017#2 517641017#4 517641017#5 184083199#0 184083199#0.274 184083199#6 -219053199#3 -219053199#2 -218923156#5 -218923156#4 -218923156#3 -218923156#1 184083174 218923188#1 218923188#2 -198564930"/>
    </vehicle>
    <vehicle id="2to13.9" depart="30.97">
        <route edges="517641011#6 517641017#0 517641017#2 517641017#4 517641017#5 184083199#0 184083199#0.274 184083199#6 184083199#7 184083199#8 gneE40 gneE36 gneE35"/>
    </vehicle>
    <vehicle id="11to2.4" depart="31.44">
        <route edges="gneE31 gneE53 73541403#11 73541403#12 219053199#0 184083119#0 218919060#3 218919060#4 218919060#5 gneE23 220027347#2 220027347#3 gneE22"/>
    </vehicle>
    <vehicle id="4to16.2" depart="32.14">
        <route edges="184083181#6 184083187#0 184083187#1 184083187#2 184083187#3 184083187#4 218974504#0 218974504#1 218974504#2 198564931 218923156#1 218923156#3 218923156#4 218923156#5 219053199#0 219053199#3 219053199#5 219053199#6"/>
    </vehicle>
    <vehicle id="4to13.2" depart="32.29">
        <route edges="184083181#6 184083187#0 184083187#1 184083187#2 184083187#3 184083187#4 218974504#0 218974504#1 218974504#2 198564931 218923156#1 218923156#3 218923156#4 218923156#5 219053199#0 219053199#3 219053199#5 219053199#6 -219053199#7 184083112 184083199#8 gneE40 gneE36 gneE35"/>
    </vehicle>
    <vehicle id="4to9.4" depart="32.88">
        <route edges="184083181#6 184083187#0 184083187#1 184083187#2 184083187#3 184083187#4 218974504#0 218974504#1 218974504#2 218974504#3 218923188#0 218923188#1 218923188#2 -198564930"/>
    </vehicle>
    <vehicle id="8to4.8" depart="32.98">
        <route edges="gneE3 184083175 198564925#0 198564925#1 198564925#2 198564925#3 782892488#0 782892488#1 782892488#2 782892488#3 184083183#0"/>
    </vehicle>
    <vehicle id="2to13.10" depart="34.41">
        <route edges="517641011#6 517641017#0 517641017#2 517641017#4 517641017#5 184083199#0 184083199#0.274 184083199#6 184083199#7 184083199#8 gneE40 gneE36 gneE35"/>
    </vehicle>
    <vehicle id="13to2.6" depart="35.47">
        <route edges="gneE34 gneE33 474532059#4 474532059#4.95 474532059#5 218919060#0 218919060#3 218919060#4 218919060#5 gneE23 220027347#2 220027347#3 gneE22"/>
    </vehicle>
    <vehicle id="13to8.2" depart="36.00">
        <route edges="gneE34 gneE33 474532059#4 474532059#4.95 184083117#0 -219053199#2 -218923156#5 -218923156#4 -218923156#3 -218923156#1 -218923156#0 -219096265 gneE4"/>
    </vehicle>
    <vehicle id="16to7.1" depart="36.00">
        <route edges="-219053199#7 -219053199#5 -219053199#3 -219053199#2 -218923156#5 -218923156#4 -218923156#3 921796625 233651288#0 233651288#1 656122981#2 613477341"/>
    </vehicle>
    <vehicle id="16to8.5" depart="36.00">
        <route edges="-219053199#7 -219053199#5 -219053199#3 -219053199#2 -218923156#5 -218923156#4 -218923156#3 -218923156#1 -218923156#0 -219096265 gneE4"/>
    </vehicle>
    <vehicle id="17to8_2.1" depart="36.00">
        <route edges="717851360#2 184083199#0 184083199#0.274 184083199#6 -219053199#3 -219053199#2 -218923156#5 -218923156#4 -218923156#3 -218923156#1 -218923156#0 -219096265 gneE4"/>
    </vehicle>
    <vehicle id="5to9.2" depart="36.00">
        <route edges="824132484 420383141#0 420383141#1 420383141#2 732213463#10 732213463#12 732213463#18 732213463#19 908694578#0 908694578#2 908694578#3 908694578#5 908694578#6 -218923156#5 -218923156#4 -218923156#3 -218923156#1 184083174 218923188#1 218923188#2 -198564930"/>
    </vehicle>
    <vehicle id="7to17.2" depart="36.00">
        <route edges="913565824#0 913565824#2 913565824#3 913565824#4 919117822#1 919117822#2 919117822#3 919117822#4 782892487"/>
    </vehicle>
    <vehicle id="9to16.1" depart="36.00">
        <route edges="198564930 218923160#0 218923160#0-AddedOffRampEdge 218923160#4 218923156#0 218923156#1 218923156#3 218923156#4 218923156#5 219053199#0 219053199#3 219053199#5 219053199#6"/>
    </vehicle>
    <vehicle id="9to17.1" depart="36.00">
        <route edges="198564930 218923160#0 218923160#0-AddedOffRampEdge 218923160#4 218923156#0 218923156#1 218923156#3 218923156#4 218923156#5 908646367#0 gneE26 919117822#1 919117822#2 919117822#3 919117822#4 782892487"/>
    </vehicle>
    <vehicle id="8to4.9" depart="37.11">
        <route edges="gneE3 184083175 198564925#0 198564925#1 198564925#2 198564925#3 782892488#0 782892488#1 782892488#2 782892488#3 184083183#0"/>
    </vehicle>
    <vehicle id="2to13.11" depart="37.85">
        <route edges="517641011#6 517641017#0 517641017#2 517641017#4 517641017#5 184083199#0 184083199#0.274 184083199#6 184083199#7 184083199#8 gneE40 gneE36 gneE35"/>
    </vehicle>
    <vehicle id="11to2.5" depart="39.30">
        <route edges="gneE31 gneE53 73541403#11 73541403#12 219053199#0 184083119#0 218919060#3 218919060#4 218919060#5 gneE23 220027347#2 220027347#3 gneE22"/>
    </vehicle>
    <vehicle id="4to9.5" depart="41.10">
        <route edges="184083181#6 184083187#0 184083187#1 184083187#2 184083187#3 184083187#4 218974504#0 218974504#1 218974504#2 218974504#3 218923188#0 218923188#1 218923188#2 -198564930"/>
    </vehicle>
    <vehicle id="13to4.2" depart="41.14">
        <route edges="gneE34 gneE33 474532059#4 474532059#4.95 184083117#0 -219053199#2 -218923156#5 -218923156#4 -218923156#3 -218923156#1 -218923156#0 219096264 198564925#0 198564925#1 198564925#2 198564925#3 782892488#0 782892488#1 782892488#2 782892488#3 184083183#0"/>
    </vehicle>
    <vehicle id="8to4.10" depart="41.23">
        <route edges="gneE3 184083175 198564925#0 198564925#1 198564925#2 198564925#3 782892488#0 782892488#1 782892488#2 782892488#3 184083183#0"/>
    </vehicle>
    <vehicle id="2to13.12" depart="41.29">
        <route edges="517641011#6 517641017#0 517641017#2 517641017#4 517641017#5 184083199#0 184083199#0.274 184083199#6 184083199#7 184083199#8 gneE40 gneE36 gneE35"/>
    </vehicle>
    <vehicle id="13to2.7" depart="41.38">
        <route edges="gneE34 gneE33 474532059#4 474532059#4.95 474532059#5 218919060#0 218919060#3 218919060#4 218919060#5 gneE23 220027347#2 220027347#3 gneE22"/>
    </vehicle>
    <vehicle id="16to8.6" depart="43.20">
        <route edges="-219053199#7 -219053199#5 -219053199#3 -219053199#2 -218923156#5 -218923156#4 -218923156#3 -218923156#1 -218923156#0 -219096265 gneE4"/>
    </vehicle>
    <vehicle id="2to13.13" depart="44.73">
        <route edges="517641011#6 517641017#0 517641017#2 517641017#4 517641017#5 184083199#0 184083199#0.274 184083199#6 184083199#7 184083199#8 gneE40 gneE36 gneE35"/>
    </vehicle>
    <vehicle id="17to7.1" depart="45.00">
        <route edges="717851360#2 517706841#0 517706841#2 517706841#3 517706841#4 gneE41 656122981#2 613477341"/>
    </vehicle>
    <vehicle id="17to8.1" depart="45.00">
        <route edges="717851360#2 517706841#0 517706841#2 517706841#3 517706841#4 gneE41 656122981#2 218974504#0 218974504#1 218974504#2 218974504#3 -219096265 gneE4"/>
    </vehicle>
    <vehicle id="1to9.3" depart="45.00">
        <route edges="180190213#2 517641017#0 517641017#2 517641017#4 517641017#5 184083199#0 184083199#0.274 184083199#6 -219053199#3 -219053199#2 -218923156#5 -218923156#4 -218923156#3 -218923156#1 184083174 218923188#1 218923188#2 -198564930"/>
    </vehicle>
    <vehicle id="3to13.1" depart="45.00">
        <route edges="732213463#8.123 732213463#10 732213463#12 732213463#18 732213463#19 908694578#0 908694578#2 908694578#3 908694578#5 908694578#6 350127794#0 350127794#1 350127794#4 350127794#5 gneE32 gneE35"/>
    </vehicle>
    <vehicle id="3to7.1" depart="45.00">
        <route edges="732213463#8.123 732213463#10 732213463#12 732213463#18 732213463#19 gneE41 656122981#2 613477341"/>
    </vehicle>
    <vehicle id="3to9.1" depart="45.00">
        <route edges="732213463#8.123 732213463#10 732213463#12 732213463#18 732213463#19 908694578#0 908694578#2 908694578#3 908694578#5 908694578#6 -218923156#5 -218923156#4 -218923156#3 -218923156#1 184083174 218923188#1 218923188#2 -198564930"/>
    </vehicle>
    <vehicle id="5to1.1" depart="45.00">
        <route edges="824132484 420383141#0 420383141#1 420383141#2 517641026#0 517641026#2 -180190213#3"/>
    </vehicle>
    <vehicle id="6to2.1" depart="45.00">
        <route edges="420361195#0.464 420361195#3 329995230#0 329995230#1 329995230#2 908646367#7 908646367#10 517641026#0 517641026#2 gneE22"/>
    </vehicle>
    <vehicle id="7to16.1" depart="45.00">
        <route edges="913565824#0 218974504#0 218974504#1 218974504#2 198564931 218923156#1 218923156#3 218923156#4 218923156#5 219053199#0 219053199#3 219053199#5 219053199#6"/>
    </vehicle>
    <vehicle id="8to11.1" depart="45.00">
        <route edges="gneE3 219096265 218923156#0 218923156#1 218923156#3 218923156#4 218923156#5 219053199#0 219053199#3 219053199#5 219053199#6 -219053199#7 -219053199#5 -219053199#3 -219053199#2 350127794#0 350127794#1 350127794#4 350127794#5 350127794#6"/>
    </vehicle>
    <vehicle id="8to16.2" depart="45.00">
        <route edges="gneE3 219096265 218923156#0 218923156#1 218923156#3 218923156#4 218923156#5 219053199#0 219053199#3 219053199#5 219053199#6"/>
    </vehicle>
    <vehicle id="8to3.1" depart="45.00">
        <route edges="gneE3 219096265 218923156#0 218923156#1 218923156#3 218923156#4 218923156#5 908646367#0 gneE26 908646367#5 908646367#6 908646367#7 908646367#10 218924602#0"/>
    </vehicle>
    <vehicle id="9to10.1" depart="45.00">
        <route edges="198564930 469260694#0 gneE27"/>
    </vehicle>
    <vehicle id="8to4.11" depart="45.35">
        <route edges="gneE3 184083175 198564925#0 198564925#1 198564925#2 198564925#3 782892488#0 782892488#1 782892488#2 782892488#3 184083183#0"/>
    </vehicle>
    <vehicle id="11to2.6" depart="47.16">
        <route edges="gneE31 gneE53 73541403#11 73541403#12 219053199#0 184083119#0 218919060#3 218919060#4 218919060#5 gneE23 220027347#2 220027347#3 gneE22"/>
    </vehicle>
    <vehicle id="13to2.8" depart="47.29">
        <route edges="gneE34 gneE33 474532059#4 474532059#4.95 474532059#5 218919060#0 218919060#3 218919060#4 218919060#5 gneE23 220027347#2 220027347#3 gneE22"/>
    </vehicle>
    <vehicle id="2to8.2" depart="48.00">
        <route edges="517641011#6 517641017#0 517641017#2 517641017#4 517641017#5 184083199#0 184083199#0.274 184083199#6 -219053199#3 -219053199#2 -218923156#5 -218923156#4 -218923156#3 -218923156#1 -218923156#0 -219096265 gneE4"/>
    </vehicle>
    <vehicle id="2to13.14" depart="48.17">
        <route edges="517641011#6 517641017#0 517641017#2 517641017#4 517641017#5 184083199#0 184083199#0.274 184083199#6 184083199#7 184083199#8 gneE40 gneE36 gneE35"/>
    </vehicle>
    <vehicle id="4to16.3" depart="48.21">
        <route edges="184083181#6 184083187#0 184083187#1 184083187#2 184083187#3 184083187#4 218974504#0 218974504#1 218974504#2 198564931 218923156#1 218923156#3 218923156#4 218923156#5 219053199#0 219053199#3 219053199#5 219053199#6"/>
    </vehicle>
    <vehicle id="4to13.3" depart="48.43">
        <route edges="184083181#6 184083187#0 184083187#1 184083187#2 184083187#3 184083187#4 218974504#0 218974504#1 218974504#2 198564931 218923156#1 218923156#3 218923156#4 218923156#5 219053199#0 219053199#3 219053199#5 219053199#6 -219053199#7 184083112 184083199#8 gneE40 gneE36 gneE35"/>
    </vehicle>
    <vehicle id="4to9.6" depart="49.31">
        <route edges="184083181#6 184083187#0 184083187#1 184083187#2 184083187#3 184083187#4 218974504#0 218974504#1 218974504#2 218974504#3 218923188#0 218923188#1 218923188#2 -198564930"/>
    </vehicle>
    <vehicle id="8to4.12" depart="49.48">
        <route edges="gneE3 184083175 198564925#0 198564925#1 198564925#2 198564925#3 782892488#0 782892488#1 782892488#2 782892488#3 184083183#0"/>
    </vehicle>
    <vehicle id="16to8.7" depart="50.40">
        <route edges="-219053199#7 -219053199#5 -219053199#3 -219053199#2 -218923156#5 -218923156#4 -218923156#3 -218923156#1 -218923156#0 -219096265 gneE4"/>
    </vehicle>
    <vehicle id="2to13.15" depart="51.62">
        <route edges="517641011#6 517641017#0 517641017#2 517641017#4 517641017#5 184083199#0 184083199#0.274 184083199#6 184083199#7 184083199#8 gneE40 gneE36 gneE35"/>
    </vehicle>
    <vehicle id="13to2.9" depart="53.20">