<?xml version="1.0" encoding="UTF-8"?>

<!-- generated on Sun 23 May 2021 05:31:46 PM KST by Eclipse SUMO netedit Version 1.8.0
<configuration xmlns:xsi="http://www.w3.org/2001/XMLSchema-instance" xsi:noNamespaceSchemaLocation="http://sumo.dlr.de/xsd/netconvertConfiguration.xsd">

    <input>
        <sumo-net-file value="/home/taekwon/projects/deeprl_signal_control/seoul/data/seoul.net.xml"/>
    </input>

    <output>
        <output-file value="/home/taekwon/projects/deeprl_signal_control/seoul/data/seoul.net.xml"/>
        <output.street-names value="true"/>
    </output>

    <processing>
        <geometry.min-radius.fix.railways value="false"/>
        <geometry.max-grade.fix value="false"/>
        <offset.disable-normalization value="true"/>
        <lefthand value="false"/>
    </processing>

    <junctions>
        <no-turnarounds value="true"/>
        <junctions.corner-detail value="5"/>
        <junctions.limit-turn-speed value="5.5"/>
        <rectangular-lane-cut value="false"/>
    </junctions>

    <pedestrian>
        <walkingareas value="false"/>
    </pedestrian>

    <report>
        <aggregate-warnings value="5"/>
    </report>

</configuration>
-->

<net version="1.6" junctionCornerDetail="5" limitTurnSpeed="5.50" xmlns:xsi="http://www.w3.org/2001/XMLSchema-instance" xsi:noNamespaceSchemaLocation="http://sumo.dlr.de/xsd/net_file.xsd">

    <location netOffset="-320871.56,-4159012.89" convBoundary="557.17,401.39,1952.57,1230.71" origBoundary="126.723686,37.485335,127.104308,37.728544" projParameter="+proj=utm +zone=52 +ellps=WGS84 +datum=WGS84 +units=m +no_defs"/>

    <type id="highway.bridleway" priority="1" numLanes="1" speed="2.78" allow="pedestrian" oneway="1" width="2.00"/>
    <type id="highway.bus_guideway" priority="1" numLanes="1" speed="27.78" allow="bus" oneway="1"/>
    <type id="highway.cycleway" priority="1" numLanes="1" speed="8.33" allow="bicycle" oneway="1" width="1.00"/>
    <type id="highway.footway" priority="1" numLanes="1" speed="2.78" allow="pedestrian" oneway="1" width="2.00"/>
    <type id="highway.ford" priority="1" numLanes="1" speed="2.78" allow="army" oneway="1"/>
    <type id="highway.living_street" priority="2" numLanes="1" speed="2.78" disallow="tram rail_urban rail rail_electric rail_fast ship" oneway="1"/>
    <type id="highway.motorway" priority="14" numLanes="2" speed="39.44" allow="private emergency authority army vip passenger hov taxi bus coach delivery truck trailer motorcycle evehicle custom1 custom2" oneway="1"/>
    <type id="highway.motorway_link" priority="9" numLanes="1" speed="22.22" allow="private emergency authority army vip passenger hov taxi bus coach delivery truck trailer motorcycle evehicle custom1 custom2" oneway="1"/>
    <type id="highway.path" priority="1" numLanes="1" speed="2.78" allow="pedestrian bicycle" oneway="1" width="2.00"/>
    <type id="highway.pedestrian" priority="1" numLanes="1" speed="2.78" allow="pedestrian" oneway="1" width="2.00"/>
    <type id="highway.primary" priority="12" numLanes="2" speed="27.78" disallow="tram rail_urban rail rail_electric rail_fast ship" oneway="1"/>
    <type id="highway.primary_link" priority="7" numLanes="1" speed="22.22" disallow="tram rail_urban rail rail_electric rail_fast ship" oneway="1"/>
    <type id="highway.raceway" priority="15" numLanes="2" speed="83.33" allow="vip" oneway="1"/>
    <type id="highway.residential" priority="3" numLanes="1" speed="13.89" disallow="tram rail_urban rail rail_electric rail_fast ship" oneway="1"/>
    <type id="highway.secondary" priority="11" numLanes="1" speed="27.78" disallow="tram rail_urban rail rail_electric rail_fast ship" oneway="1"/>
    <type id="highway.secondary_link" priority="6" numLanes="1" speed="22.22" disallow="tram rail_urban rail rail_electric rail_fast ship" oneway="1"/>
    <type id="highway.service" priority="1" numLanes="1" speed="5.56" allow="pedestrian delivery bicycle" oneway="1"/>
    <type id="highway.stairs" priority="1" numLanes="1" speed="1.39" allow="pedestrian" oneway="1" width="2.00"/>
    <type id="highway.step" priority="1" numLanes="1" speed="1.39" allow="pedestrian" oneway="1" width="2.00"/>
    <type id="highway.steps" priority="1" numLanes="1" speed="1.39" allow="pedestrian" oneway="1" width="2.00"/>
    <type id="highway.tertiary" priority="10" numLanes="1" speed="22.22" disallow="tram rail_urban rail rail_electric rail_fast ship" oneway="1"/>
    <type id="highway.tertiary_link" priority="5" numLanes="1" speed="22.22" disallow="tram rail_urban rail rail_electric rail_fast ship" oneway="1"/>
    <type id="highway.track" priority="1" numLanes="1" speed="5.56" allow="pedestrian motorcycle moped bicycle" oneway="1"/>
    <type id="highway.trunk" priority="13" numLanes="2" speed="27.78" disallow="pedestrian bicycle tram rail_urban rail rail_electric rail_fast ship" oneway="1"/>
    <type id="highway.trunk_link" priority="8" numLanes="1" speed="22.22" disallow="pedestrian bicycle tram rail_urban rail rail_electric rail_fast ship" oneway="1"/>
    <type id="highway.unclassified" priority="4" numLanes="1" speed="13.89" disallow="tram rail_urban rail rail_electric rail_fast ship" oneway="1"/>
    <type id="highway.unsurfaced" priority="1" numLanes="1" speed="8.33" disallow="tram rail_urban rail rail_electric rail_fast ship" oneway="1"/>
    <type id="railway.highspeed" priority="21" numLanes="1" speed="69.44" allow="rail_fast" oneway="1"/>
    <type id="railway.light_rail" priority="19" numLanes="1" speed="27.78" allow="rail_urban" oneway="1"/>
    <type id="railway.preserved" priority="16" numLanes="1" speed="27.78" allow="rail" oneway="1"/>
    <type id="railway.rail" priority="20" numLanes="1" speed="44.44" allow="rail" oneway="1"/>
    <type id="railway.subway" priority="18" numLanes="1" speed="27.78" allow="rail_urban" oneway="1"/>
    <type id="railway.tram" priority="17" numLanes="1" speed="13.89" allow="tram" oneway="1"/>

    <edge id=":1326151571_0" function="internal">
        <lane id=":1326151571_0_0" index="0" disallow="tram rail_urban rail rail_electric rail_fast ship" speed="6.95" length="9.60" shape="1578.54,1037.65 1576.11,1037.91 1574.23,1038.97 1572.92,1040.81 1572.16,1043.44"/>
    </edge>
    <edge id=":1326151571_1" function="internal">
        <lane id=":1326151571_1_0" index="0" disallow="tram rail_urban rail rail_electric rail_fast ship" speed="16.67" length="14.44" shape="1578.54,1037.65 1564.12,1036.95"/>
        <lane id=":1326151571_1_1" index="1" disallow="tram rail_urban rail rail_electric rail_fast ship" speed="16.67" length="14.44" shape="1578.70,1034.46 1564.28,1033.75"/>
        <lane id=":1326151571_1_2" index="2" disallow="tram rail_urban rail rail_electric rail_fast ship" speed="16.67" length="14.44" shape="1578.85,1031.26 1564.43,1030.56"/>
        <lane id=":1326151571_1_3" index="3" disallow="tram rail_urban rail rail_electric rail_fast ship" speed="16.67" length="14.44" shape="1579.01,1028.06 1564.59,1027.36"/>
    </edge>
    <edge id=":1326151571_5" function="internal">
        <lane id=":1326151571_5_0" index="0" disallow="tram rail_urban rail rail_electric rail_fast ship" speed="6.29" length="9.04" shape="1569.00,1042.94 1569.03,1040.43 1568.23,1038.59 1566.59,1037.43 1564.12,1036.95"/>
    </edge>
    <edge id=":1326151571_6" function="internal">
        <lane id=":1326151571_6_0" index="0" disallow="tram rail_urban rail rail_electric rail_fast ship" speed="7.12" length="11.93" shape="1569.00,1042.94 1569.23,1039.03 1568.52,1036.20 1566.87,1034.44 1564.28,1033.75"/>
    </edge>
    <edge id=":1326151571_7" function="internal">
        <lane id=":1326151571_7_0" index="0" disallow="tram rail_urban rail rail_electric rail_fast ship" speed="3.65" length="4.67" shape="1569.00,1042.94 1569.98,1041.88 1570.83,1041.61 1571.56,1042.13 1572.16,1043.44"/>
    </edge>
    <edge id=":1813641425_0" function="internal">
        <lane id=":1813641425_0_0" index="0" disallow="tram rail_urban rail rail_electric rail_fast ship" speed="16.67" length="0.27" shape="1790.87,572.35 1791.07,572.36"/>
        <lane id=":1813641425_0_1" index="1" disallow="tram rail_urban rail rail_electric rail_fast ship" speed="16.67" length="0.27" shape="1790.63,575.54 1790.91,575.56"/>
        <lane id=":1813641425_0_2" index="2" disallow="tram rail_urban rail rail_electric rail_fast ship" speed="16.67" length="0.27" shape="1790.40,578.73 1790.74,578.75"/>
    </edge>
    <edge id=":1815457991_0" function="internal">
        <lane id=":1815457991_0_0" index="0" disallow="tram rail_urban rail rail_electric rail_fast ship" speed="27.78" length="0.31" shape="1825.74,908.46 1825.74,908.68"/>
        <lane id=":1815457991_0_1" index="1" disallow="tram rail_urban rail rail_electric rail_fast ship" speed="27.78" length="0.31" shape="1822.55,908.31 1822.54,908.63"/>
        <lane id=":1815457991_0_2" index="2" disallow="tram rail_urban rail rail_electric rail_fast ship" speed="27.78" length="0.31" shape="1819.35,908.16 1819.34,908.57"/>
    </edge>
    <edge id=":1945254547_0" function="internal">
        <lane id=":1945254547_0_0" index="0" disallow="tram rail_urban rail rail_electric rail_fast ship" speed="3.65" length="4.67" shape="595.01,474.19 595.27,472.77 595.84,472.08 596.74,472.13 597.95,472.91"/>
    </edge>
    <edge id=":1945254561_0" function="internal">
        <lane id=":1945254561_0_0" index="0" disallow="tram rail_urban rail rail_electric rail_fast ship" speed="20.84" length="11.26" shape="943.37,519.15 942.27,507.99"/>
        <lane id=":1945254561_0_1" index="1" disallow="tram rail_urban rail rail_electric rail_fast ship" speed="20.84" length="11.26" shape="946.55,518.82 945.45,507.63"/>
        <lane id=":1945254561_0_2" index="2" disallow="tram rail_urban rail rail_electric rail_fast ship" speed="20.84" length="11.26" shape="949.73,518.49 948.63,507.27"/>
        <lane id=":1945254561_0_3" index="3" disallow="tram rail_urban rail rail_electric rail_fast ship" speed="20.84" length="11.26" shape="952.92,518.16 951.81,506.91"/>
    </edge>
    <edge id=":1945254561_4" function="internal">
        <lane id=":1945254561_4_0" index="0" disallow="tram rail_urban rail rail_electric rail_fast ship" speed="11.31" length="11.00" shape="964.52,505.47 965.02,508.69 965.83,510.89 967.23,512.71 969.53,514.79"/>
    </edge>
    <edge id=":1945254561_5" function="internal">
        <lane id=":1945254561_5_0" index="0" disallow="tram rail_urban rail rail_electric rail_fast ship" speed="20.84" length="11.37" shape="964.52,505.47 965.65,516.83"/>
        <lane id=":1945254561_5_1" index="1" disallow="tram rail_urban rail rail_electric rail_fast ship" speed="20.84" length="11.37" shape="961.35,505.83 962.47,517.16"/>
        <lane id=":1945254561_5_2" index="2" disallow="tram rail_urban rail rail_electric rail_fast ship" speed="20.84" length="11.37" shape="958.17,506.19 959.28,517.49"/>
        <lane id=":1945254561_5_3" index="3" disallow="tram rail_urban rail rail_electric rail_fast ship" speed="20.84" length="11.37" shape="954.99,506.55 956.10,517.83"/>
    </edge>
    <edge id=":1945254561_9" function="internal">
        <lane id=":1945254561_9_0" index="0" disallow="tram rail_urban rail rail_electric rail_fast ship" speed="8.41" length="7.59" shape="938.77,514.49 940.41,512.64 941.54,510.94 942.16,509.39 942.27,507.99"/>
    </edge>
    <edge id=":1945254561_10" function="internal">
        <lane id=":1945254561_10_0" index="0" disallow="tram rail_urban rail rail_electric rail_fast ship" speed="9.41" length="9.62" shape="938.77,514.49 940.13,513.26 942.41,511.16 944.55,509.02 945.45,507.63"/>
    </edge>
    <edge id=":1945254561_11" function="internal">
        <lane id=":1945254561_11_0" index="0" disallow="tram rail_urban rail rail_electric rail_fast ship" speed="10.81" length="12.87" shape="938.77,514.49 942.98,510.40 946.02,507.83 947.90,506.79 948.63,507.27"/>
    </edge>
    <edge id=":1945254596_0" function="internal">
        <lane id=":1945254596_0_0" index="0" disallow="tram rail_urban rail rail_electric rail_fast ship" speed="7.47" length="5.92" shape="905.09,546.00 907.78,546.08 909.61,546.27 910.56,546.56 910.64,546.95"/>
    </edge>
    <edge id=":1945254596_1" function="internal">
        <lane id=":1945254596_1_0" index="0" disallow="tram rail_urban rail rail_electric rail_fast ship" speed="16.67" length="4.44" shape="905.05,549.20 910.16,549.12"/>
        <lane id=":1945254596_1_1" index="1" disallow="tram rail_urban rail rail_electric rail_fast ship" speed="16.67" length="4.44" shape="905.01,552.40 909.45,552.34"/>
        <lane id=":1945254596_1_2" index="2" disallow="tram rail_urban rail rail_electric rail_fast ship" speed="16.67" length="4.44" shape="904.97,555.60 908.74,555.55"/>
    </edge>
    <edge id=":1945254603_0" function="internal">
        <lane id=":1945254603_0_0" index="0" disallow="tram rail_urban rail rail_electric rail_fast ship" speed="12.73" length="10.20" shape="1016.61,550.35 1018.95,552.33 1020.56,553.83 1022.35,554.81 1025.22,555.18"/>
    </edge>
    <edge id=":1945254603_1" function="internal">
        <lane id=":1945254603_1_0" index="0" disallow="tram rail_urban rail rail_electric rail_fast ship" speed="16.67" length="10.33" shape="1015.23,553.98 1025.22,555.18"/>
        <lane id=":1945254603_1_1" index="1" disallow="tram rail_urban rail rail_electric rail_fast ship" speed="16.67" length="10.33" shape="1014.92,557.16 1025.18,558.38"/>
        <lane id=":1945254603_1_2" index="2" disallow="tram rail_urban rail rail_electric rail_fast ship" speed="16.67" length="10.33" shape="1014.61,560.35 1025.15,561.58"/>
    </edge>
    <edge id=":1945254621_0" function="internal">
        <lane id=":1945254621_0_0" index="0" disallow="tram rail_urban rail rail_electric rail_fast ship" speed="7.66" length="5.42" shape="915.38,570.87 914.20,569.85 913.00,569.14 911.81,568.73 910.61,568.63"/>
    </edge>
    <edge id=":1945254621_1" function="internal">
        <lane id=":1945254621_1_0" index="0" disallow="tram rail_urban rail rail_electric rail_fast ship" speed="16.67" length="6.71" shape="916.96,566.88 915.02,566.67 913.72,566.14 912.43,565.62 910.49,565.43"/>
        <lane id=":1945254621_1_1" index="1" disallow="tram rail_urban rail rail_electric rail_fast ship" speed="16.67" length="6.71" shape="916.88,563.68 914.93,563.47 913.63,562.94 912.33,562.42 910.38,562.23"/>
    </edge>
    <edge id=":1945254635_0" function="internal">
        <lane id=":1945254635_0_0" index="0" disallow="tram rail_urban rail rail_electric rail_fast ship" speed="9.99" length="3.73" shape="1028.56,576.20 1027.46,576.19 1026.70,576.28 1025.97,576.52 1024.98,576.99"/>
    </edge>
    <edge id=":1945254635_1" function="internal">
        <lane id=":1945254635_1_0" index="0" disallow="tram rail_urban rail rail_electric rail_fast ship" speed="16.67" length="3.49" shape="1028.63,573.00 1024.97,572.83"/>
        <lane id=":1945254635_1_1" index="1" disallow="tram rail_urban rail rail_electric rail_fast ship" speed="16.67" length="3.49" shape="1028.70,569.80 1025.21,569.64"/>
        <lane id=":1945254635_1_2" index="2" disallow="tram rail_urban rail rail_electric rail_fast ship" speed="16.67" length="3.49" shape="1028.77,566.60 1025.46,566.45"/>
    </edge>
    <edge id=":1945254831_0" function="internal">
        <lane id=":1945254831_0_0" index="0" disallow="tram rail_urban rail rail_electric rail_fast ship" speed="27.78" length="11.03" shape="979.70,998.85 978.15,987.89"/>
        <lane id=":1945254831_0_1" index="1" disallow="tram rail_urban rail rail_electric rail_fast ship" speed="27.78" length="11.03" shape="982.87,998.45 981.33,987.53"/>
        <lane id=":1945254831_0_2" index="2" disallow="tram rail_urban rail rail_electric rail_fast ship" speed="27.78" length="11.03" shape="986.05,998.06 984.51,987.16"/>
    </edge>
    <edge id=":1945254831_3" function="internal">
        <lane id=":1945254831_3_0" index="0" disallow="tram rail_urban rail rail_electric rail_fast ship" speed="6.99" length="4.43" shape="986.05,998.06 987.05,993.74"/>
    </edge>
    <edge id=":1945254831_11" function="internal">
        <lane id=":1945254831_11_0" index="0" disallow="tram rail_urban rail rail_electric rail_fast ship" speed="6.99" length="15.55" shape="987.05,993.74 987.22,993.02 991.08,990.29 995.89,990.36 999.93,993.74"/>
    </edge>
    <edge id=":1945254831_4" function="internal">
        <lane id=":1945254831_4_0" index="0" disallow="tram rail_urban rail rail_electric rail_fast ship" speed="17.50" length="8.60" shape="997.22,985.69 997.55,988.22 997.95,989.93 998.66,991.53 999.93,993.74"/>
    </edge>
    <edge id=":1945254831_5" function="internal">
        <lane id=":1945254831_5_0" index="0" disallow="tram rail_urban rail rail_electric rail_fast ship" speed="27.78" length="10.95" shape="994.04,986.06 995.58,996.87"/>
        <lane id=":1945254831_5_1" index="1" disallow="tram rail_urban rail rail_electric rail_fast ship" speed="27.78" length="10.95" shape="990.87,986.43 992.40,997.27"/>
        <lane id=":1945254831_5_2" index="2" disallow="tram rail_urban rail rail_electric rail_fast ship" speed="27.78" length="10.95" shape="987.69,986.79 989.23,997.66"/>
    </edge>
    <edge id=":1945254831_8" function="internal">
        <lane id=":1945254831_8_0" index="0" disallow="tram rail_urban rail rail_electric rail_fast ship" speed="11.79" length="12.02" shape="973.65,998.26 975.08,995.64 975.55,993.57 975.39,991.35 974.97,988.26"/>
        <lane id=":1945254831_8_1" index="1" disallow="tram rail_urban rail rail_electric rail_fast ship" speed="12.47" length="12.02" shape="973.65,998.26 975.59,995.66 977.16,993.61 978.10,991.29 978.15,987.89"/>
        <lane id=":1945254831_8_2" index="2" disallow="tram rail_urban rail rail_electric rail_fast ship" speed="13.53" length="12.02" shape="973.65,998.26 976.10,995.74 978.79,993.78 980.83,991.38 981.33,987.53"/>
    </edge>
    <edge id=":1945254874_0" function="internal">
        <lane id=":1945254874_0_0" index="0" disallow="tram rail_urban rail rail_electric rail_fast ship" speed="12.50" length="16.75" shape="931.85,1014.15 937.29,1014.02 941.51,1013.76 945.01,1013.10 948.27,1011.76"/>
    </edge>
    <edge id=":1945254874_1" function="internal">
        <lane id=":1945254874_1_0" index="0" disallow="tram rail_urban rail rail_electric rail_fast ship" speed="16.67" length="16.86" shape="931.85,1014.15 936.78,1014.55 940.09,1015.64 943.40,1016.76 948.34,1017.26"/>
        <lane id=":1945254874_1_1" index="1" disallow="tram rail_urban rail rail_electric rail_fast ship" speed="16.67" length="16.86" shape="931.93,1017.35 936.85,1017.75 940.14,1018.84 943.44,1019.96 948.36,1020.46"/>
    </edge>
    <edge id=":1945254891_0" function="internal">
        <lane id=":1945254891_0_0" index="0" disallow="tram rail_urban rail rail_electric rail_fast ship" speed="12.50" length="22.11" shape="1046.15,1011.94 1050.21,1012.93 1055.11,1014.13 1060.98,1015.13 1067.90,1015.53"/>
    </edge>
    <edge id=":1945254891_1" function="internal">
        <lane id=":1945254891_1_0" index="0" disallow="tram rail_urban rail rail_electric rail_fast ship" speed="16.67" length="22.11" shape="1045.78,1015.99 1067.90,1015.53"/>
        <lane id=":1945254891_1_1" index="1" disallow="tram rail_urban rail rail_electric rail_fast ship" speed="16.67" length="22.11" shape="1045.84,1019.19 1067.92,1018.73"/>
    </edge>
    <edge id=":1945254901_0" function="internal">
        <lane id=":1945254901_0_0" index="0" disallow="tram rail_urban rail rail_electric rail_fast ship" speed="22.23" length="3.09" shape="1518.70,1017.12 1521.88,1017.36"/>
        <lane id=":1945254901_0_1" index="1" disallow="tram rail_urban rail rail_electric rail_fast ship" speed="22.23" length="3.09" shape="1518.64,1020.32 1521.63,1020.55"/>
    </edge>
    <edge id=":1945254934_0" function="internal">
        <lane id=":1945254934_0_0" index="0" disallow="tram rail_urban rail rail_electric rail_fast ship" speed="7.82" length="5.96" shape="954.77,1034.00 953.51,1032.75 952.25,1031.85 951.00,1031.30 949.75,1031.11"/>
    </edge>
    <edge id=":1945254934_1" function="internal">
        <lane id=":1945254934_1_0" index="0" disallow="tram rail_urban rail rail_electric rail_fast ship" speed="16.67" length="7.50" shape="956.71,1030.17 954.61,1029.69 953.25,1028.93 951.89,1028.24 949.78,1027.91"/>
        <lane id=":1945254934_1_1" index="1" disallow="tram rail_urban rail rail_electric rail_fast ship" speed="16.67" length="7.50" shape="957.00,1026.99 954.82,1026.49 953.41,1025.74 952.00,1025.04 949.81,1024.71"/>
    </edge>
    <edge id=":1945254936_0" function="internal">
        <lane id=":1945254936_0_0" index="0" disallow="tram rail_urban rail rail_electric rail_fast ship" speed="16.19" length="14.33" shape="984.19,1072.72 983.83,1068.21 983.18,1064.84 982.06,1062.03 980.28,1059.19"/>
    </edge>
    <edge id=":1945254936_1" function="internal">
        <lane id=":1945254936_1_0" index="0" disallow="tram rail_urban rail rail_electric rail_fast ship" speed="27.78" length="14.67" shape="984.19,1072.72 984.28,1057.89"/>
        <lane id=":1945254936_1_1" index="1" disallow="tram rail_urban rail rail_electric rail_fast ship" speed="27.78" length="14.67" shape="987.38,1072.54 987.48,1057.87"/>
        <lane id=":1945254936_1_2" index="2" disallow="tram rail_urban rail rail_electric rail_fast ship" speed="27.78" length="14.67" shape="990.58,1072.37 990.68,1057.86"/>
    </edge>
    <edge id=":1945254936_4" function="internal">
        <lane id=":1945254936_4_0" index="0" disallow="tram rail_urban rail rail_electric rail_fast ship" speed="8.67" length="8.08" shape="1004.41,1065.23 1002.50,1067.13 1001.15,1068.87 1000.38,1070.44 1000.16,1071.86"/>
    </edge>
    <edge id=":1945254936_5" function="internal">
        <lane id=":1945254936_5_0" index="0" disallow="tram rail_urban rail rail_electric rail_fast ship" speed="27.78" length="14.21" shape="1000.28,1057.80 1000.16,1071.86"/>
        <lane id=":1945254936_5_1" index="1" disallow="tram rail_urban rail rail_electric rail_fast ship" speed="27.78" length="14.21" shape="997.08,1057.82 996.97,1072.03"/>
        <lane id=":1945254936_5_2" index="2" disallow="tram rail_urban rail rail_electric rail_fast ship" speed="27.78" length="14.21" shape="993.88,1057.84 993.77,1072.20"/>
    </edge>
    <edge id=":1945254946_0" function="internal">
        <lane id=":1945254946_0_0" index="0" disallow="tram rail_urban rail rail_electric rail_fast ship" speed="12.21" length="15.59" shape="1041.99,1034.11 1037.86,1034.54 1034.18,1035.72 1030.95,1037.63 1028.19,1040.28"/>
    </edge>
    <edge id=":1945254946_1" function="internal">
        <lane id=":1945254946_1_0" index="0" disallow="tram rail_urban rail rail_electric rail_fast ship" speed="16.67" length="15.83" shape="1041.99,1034.11 1026.17,1034.37"/>
        <lane id=":1945254946_1_1" index="1" disallow="tram rail_urban rail rail_electric rail_fast ship" speed="16.67" length="15.83" shape="1041.94,1030.91 1026.11,1031.17"/>
        <lane id=":1945254946_1_2" index="2" disallow="tram rail_urban rail rail_electric rail_fast ship" speed="16.67" length="15.83" shape="1041.89,1027.71 1026.06,1027.98"/>
    </edge>
    <edge id=":1949249830_0" function="internal">
        <lane id=":1949249830_0_0" index="0" disallow="tram rail_urban rail rail_electric rail_fast ship" speed="16.67" length="0.30" shape="1509.89,1034.31 1509.59,1034.30"/>
        <lane id=":1949249830_0_1" index="1" disallow="tram rail_urban rail rail_electric rail_fast ship" speed="16.67" length="0.30" shape="1510.04,1031.12 1509.74,1031.10"/>
        <lane id=":1949249830_0_2" index="2" disallow="tram rail_urban rail rail_electric rail_fast ship" speed="16.67" length="0.30" shape="1510.20,1027.92 1509.90,1027.90"/>
        <lane id=":1949249830_0_3" index="3" disallow="tram rail_urban rail rail_electric rail_fast ship" speed="16.67" length="0.30" shape="1510.35,1024.72 1510.05,1024.71"/>
    </edge>
    <edge id=":2087933375_0" function="internal">
        <lane id=":2087933375_0_0" index="0" disallow="tram rail_urban rail rail_electric rail_fast ship" speed="16.67" length="0.30" shape="1038.63,555.34 1038.93,555.34"/>
        <lane id=":2087933375_0_1" index="1" disallow="tram rail_urban rail rail_electric rail_fast ship" speed="16.67" length="0.30" shape="1038.59,558.54 1038.89,558.54"/>
        <lane id=":2087933375_0_2" index="2" disallow="tram rail_urban rail rail_electric rail_fast ship" speed="16.67" length="0.30" shape="1038.55,561.74 1038.85,561.74"/>
    </edge>
    <edge id=":2087933377_0" function="internal">
        <lane id=":2087933377_0_0" index="0" disallow="tram rail_urban rail rail_electric rail_fast ship" speed="16.67" length="0.30" shape="1248.61,558.32 1248.90,558.32"/>
        <lane id=":2087933377_0_1" index="1" disallow="tram rail_urban rail rail_electric rail_fast ship" speed="16.67" length="0.30" shape="1248.56,561.52 1248.86,561.52"/>
        <lane id=":2087933377_0_2" index="2" disallow="tram rail_urban rail rail_electric rail_fast ship" speed="16.67" length="0.30" shape="1248.51,564.72 1248.82,564.72"/>
    </edge>
    <edge id=":2087933460_0" function="internal">
        <lane id=":2087933460_0_0" index="0" disallow="tram rail_urban rail rail_electric rail_fast ship" speed="16.67" length="0.30" shape="1089.12,555.96 1089.43,555.96"/>
        <lane id=":2087933460_0_1" index="1" disallow="tram rail_urban rail rail_electric rail_fast ship" speed="16.67" length="0.30" shape="1089.08,559.16 1089.38,559.16"/>
        <lane id=":2087933460_0_2" index="2" disallow="tram rail_urban rail rail_electric rail_fast ship" speed="16.67" length="0.30" shape="1089.04,562.36 1089.33,562.36"/>
    </edge>
    <edge id=":218923160#0-AddedOffRampNode_0" function="internal">
        <lane id=":218923160#0-AddedOffRampNode_0_0" index="0" disallow="tram rail_urban rail rail_electric rail_fast ship" speed="16.67" length="8.20" shape="802.09,549.92 804.54,549.36 806.06,548.22 807.57,547.08 810.02,546.53"/>
        <lane id=":218923160#0-AddedOffRampNode_0_1" index="1" disallow="tram rail_urban rail rail_electric rail_fast ship" speed="16.67" length="8.20" shape="802.09,549.92 810.09,549.73"/>
        <lane id=":218923160#0-AddedOffRampNode_0_2" index="2" disallow="tram rail_urban rail rail_electric rail_fast ship" speed="16.67" length="8.20" shape="802.17,553.11 810.17,552.92"/>
        <lane id=":218923160#0-AddedOffRampNode_0_3" index="3" disallow="tram rail_urban rail rail_electric rail_fast ship" speed="16.67" length="8.20" shape="802.25,556.31 810.24,556.12"/>
    </edge>
    <edge id=":2252763451_0" function="internal">
        <lane id=":2252763451_0_0" index="0" disallow="tram rail_urban rail rail_electric rail_fast ship" speed="27.78" length="8.21" shape="1512.82,797.71 1510.41,797.81 1508.78,798.26 1507.15,798.71 1504.74,798.81"/>
    </edge>
    <edge id=":2252763455_0" function="internal">
        <lane id=":2252763455_0_0" index="0" disallow="tram rail_urban rail rail_electric rail_fast ship" speed="27.78" length="0.30" shape="1579.45,805.08 1579.16,805.06"/>
        <lane id=":2252763455_0_1" index="1" disallow="tram rail_urban rail rail_electric rail_fast ship" speed="27.78" length="0.30" shape="1579.67,801.88 1579.36,801.86"/>
    </edge>
    <edge id=":2323165542_0" function="internal">
        <lane id=":2323165542_0_0" index="0" disallow="tram rail_urban rail rail_electric rail_fast ship" speed="27.78" length="0.26" shape="1232.49,830.85 1232.25,830.92"/>
    </edge>
    <edge id=":2374692766_0" function="internal">
        <lane id=":2374692766_0_0" index="0" disallow="tram rail_urban rail rail_electric rail_fast ship" speed="22.22" length="8.03" shape="1585.58,630.80 1584.63,638.77"/>
    </edge>
    <edge id=":2374692766_1" function="internal">
        <lane id=":2374692766_1_0" index="0" disallow="tram rail_urban rail rail_electric rail_fast ship" speed="22.22" length="8.33" shape="1581.44,638.35 1581.09,635.86 1580.21,634.22 1579.39,632.58 1579.22,630.10"/>
        <lane id=":2374692766_1_1" index="1" disallow="tram rail_urban rail rail_electric rail_fast ship" speed="22.22" length="8.33" shape="1581.44,638.35 1582.40,630.45"/>
    </edge>
    <edge id=":2374692776_0" function="internal">
        <lane id=":2374692776_0_0" index="0" disallow="tram rail_urban rail rail_electric rail_fast ship" speed="22.22" length="0.10" shape="1583.06,684.26 1583.06,684.25"/>
    </edge>
    <edge id=":2374692776_1" function="internal">
        <lane id=":2374692776_1_0" index="0" disallow="tram rail_urban rail rail_electric rail_fast ship" speed="3.65" length="2.34" shape="1583.06,684.26 1582.22,685.43 1581.40,685.80"/>
    </edge>
    <edge id=":2374692776_4" function="internal">
        <lane id=":2374692776_4_0" index="0" disallow="tram rail_urban rail rail_electric rail_fast ship" speed="3.65" length="2.34" shape="1581.40,685.80 1580.62,685.37 1579.86,684.14"/>
    </edge>
    <edge id=":2374692776_2" function="internal">
        <lane id=":2374692776_2_0" index="0" disallow="tram rail_urban rail rail_electric rail_fast ship" speed="22.22" length="0.10" shape="1579.86,684.15 1579.86,684.14"/>
    </edge>
    <edge id=":2374692776_3" function="internal">
        <lane id=":2374692776_3_0" index="0" disallow="tram rail_urban rail rail_electric rail_fast ship" speed="3.65" length="2.34" shape="1579.86,684.15 1580.70,682.97 1581.51,682.60"/>
    </edge>
    <edge id=":2374692776_5" function="internal">
        <lane id=":2374692776_5_0" index="0" disallow="tram rail_urban rail rail_electric rail_fast ship" speed="3.65" length="2.34" shape="1581.51,682.60 1582.30,683.03 1583.06,684.25"/>
    </edge>
    <edge id=":2374692777_0" function="internal">
        <lane id=":2374692777_0_0" index="0" disallow="tram rail_urban rail rail_electric rail_fast ship" speed="16.67" length="0.10" shape="1793.48,593.14 1793.48,593.14"/>