<additional>
  <laneAreaDetector file="ild.out" freq="1" id="-218923156#0_0" lane="-218923156#0_0" pos="-26.38" endPos="-1"/>
  <laneAreaDetector file="ild.out" freq="1" id="-218923156#0_1" lane="-218923156#0_1" pos="-26.38" endPos="-1"/>
  <laneAreaDetector file="ild.out" freq="1" id="-218923156#0_2" lane="-218923156#0_2" pos="-26.38" endPos="-1"/>
  <laneAreaDetector file="ild.out" freq="1" id="-218923156#0_3" lane="-218923156#0_3" pos="-26.38" endPos="-1"/>
  <laneAreaDetector file="ild.out" freq="1" id="-218923156#0_4" lane="-218923156#0_4" pos="-26.38" endPos="-1"/>
  <laneAreaDetector file="ild.out" freq="1" id="-219053199#2_0" lane="-219053199#2_0" pos="-50.00" endPos="-1"/>
  <laneAreaDetector file="ild.out" freq="1" id="-219053199#2_1" lane="-219053199#2_1" pos="-50.00" endPos="-1"/>
  <laneAreaDetector file="ild.out" freq="1" id="-219053199#2_2" lane="-219053199#2_2" pos="-50.00" endPos="-1"/>
  <laneAreaDetector file="ild.out" freq="1" id="-219053199#2_3" lane="-219053199#2_3" pos="-50.00" endPos="-1"/>
  <laneAreaDetector file="ild.out" freq="1" id="-219053199#5_0" lane="-219053199#5_0" pos="-17.40" endPos="-1"/>
  <laneAreaDetector file="ild.out" freq="1" id="-219053199#5_1" lane="-219053199#5_1" pos="-17.40" endPos="-1"/>
  <laneAreaDetector file="ild.out" freq="1" id="-219053199#5_2" lane="-219053199#5_2" pos="-17.40" endPos="-1"/>
  <laneAreaDetector file="ild.out" freq="1" id="-420361195#3_0" lane="-420361195#3_0" pos="-40.30" endPos="-1"/>
  <laneAreaDetector file="ild.out" freq="1" id="-420361195#3_1" lane="-420361195#3_1" pos="-40.30" endPos="-1"/>
  <laneAreaDetector file="ild.out" freq="1" id="180190213#2_0" lane="180190213#2_0" pos="-50.00" endPos="-1"/>
  <laneAreaDetector file="ild.out" freq="1" id="180190213#2_1" lane="180190213#2_1" pos="-50.00" endPos="-1"/>
  <laneAreaDetector file="ild.out" freq="1" id="184083181#6_0" lane="184083181#6_0" pos="-50.00" endPos="-1"/>
  <laneAreaDetector file="ild.out" freq="1" id="184083181#6_1" lane="184083181#6_1" pos="-50.00" endPos="-1"/>
  <laneAreaDetector file="ild.out" freq="1" id="184083181#6_2" lane="184083181#6_2" pos="-50.00" endPos="-1"/>
  <laneAreaDetector file="ild.out" freq="1" id="184083187#2_0" lane="184083187#2_0" pos="-50.00" endPos="-1"/>
  <laneAreaDetector file="ild.out" freq="1" id="184083187#2_1" lane="184083187#2_1" pos="-50.00" endPos="-1"/>
  <laneAreaDetector file="ild.out" freq="1" id="184083187#2_2" lane="184083187#2_2" pos="-50.00" endPos="-1"/>
  <laneAreaDetector file="ild.out" freq="1" id="184083187#4_0" lane="184083187#4_0" pos="-50.00" endPos="-1"/>
  <laneAreaDetector file="ild.out" freq="1" id="184083187#4_1" lane="184083187#4_1" pos="-50.00" endPos="-1"/>
  <laneAreaDetector file="ild.out" freq="1" id="184083187#4_2" lane="184083187#4_2" pos="-50.00" endPos="-1"/>
  <laneAreaDetector file="ild.out" freq="1" id="184083199#6_0" lane="184083199#6_0" pos="-20.45" endPos="-1"/>
  <laneAreaDetector file="ild.out" freq="1" id="184083199#6_1" lane="184083199#6_1" pos="-20.45" endPos="-1"/>
  <laneAreaDetector file="ild.out" freq="1" id="184083199#6_2" lane="184083199#6_2" pos="-20.45" endPos="-1"/>
  <laneAreaDetector file="ild.out" freq="1" id="198564925#3_0" lane="198564925#3_0" pos="-50.00" endPos="-1"/>
  <laneAreaDetector file="ild.out" freq="1" id="198564925#3_1" lane="198564925#3_1" pos="-50.00" endPos="-1"/>
  <laneAreaDetector file="ild.out" freq="1" id="198564925#3_2" lane="198564925#3_2" pos="-50.00" endPos="-1"/>
  <laneAreaDetector file="ild.out" freq="1" id="198564930_0" lane="198564930_0" pos="-50.00" endPos="-1"/>
  <laneAreaDetector file="ild.out" freq="1" id="198564930_1" lane="198564930_1" pos="-50.00" endPos="-1"/>
  <laneAreaDetector file="ild.out" freq="1" id="198564930_2" lane="198564930_2" pos="-50.00" endPos="-1"/>
  <laneAreaDetector file="ild.out" freq="1" id="198564930_3" lane="198564930_3" pos="-50.00" endPos="-1"/>
  <laneAreaDetector file="ild.out" freq="1" id="198564930_4" lane="198564930_4" pos="-50.00" endPos="-1"/>
  <laneAreaDetector file="ild.out" freq="1" id="218919060#5_0" lane="218919060#5_0" pos="-50.00" endPos="-1"/>
  <laneAreaDetector file="ild.out" freq="1" id="218919060#5_1" lane="218919060#5_1" pos="-50.00" endPos="-1"/>
  <laneAreaDetector file="ild.out" freq="1" id="218923156#5_0" lane="218923156#5_0" pos="-50.00" endPos="-1"/>
  <laneAreaDetector file="ild.out" freq="1" id="218923156#5_1" lane="218923156#5_1" pos="-50.00" endPos="-1"/>
  <laneAreaDetector file="ild.out" freq="1" id="218923156#5_2" lane="218923156#5_2" pos="-50.00" endPos="-1"/>
  <laneAreaDetector file="ild.out" freq="1" id="218923160#4_0" lane="218923160#4_0" pos="-30.12" endPos="-1"/>
  <laneAreaDetector file="ild.out" freq="1" id="218923160#4_1" lane="218923160#4_1" pos="-30.12" endPos="-1"/>
  <laneAreaDetector file="ild.out" freq="1" id="218923160#4_2" lane="218923160#4_2" pos="-30.12" endPos="-1"/>
  <laneAreaDetector file="ild.out" freq="1" id="218923188#2_0" lane="218923188#2_0" pos="-50.00" endPos="-1"/>
  <laneAreaDetector file="ild.out" freq="1" id="218923188#2_1" lane="218923188#2_1" pos="-50.00" endPos="-1"/>
  <laneAreaDetector file="ild.out" freq="1" id="218923188#2_2" lane="218923188#2_2" pos="-50.00" endPos="-1"/>
  <laneAreaDetector file="ild.out" freq="1" id="218974504#3_0" lane="218974504#3_0" pos="-50.00" endPos="-1"/>
  <laneAreaDetector file="ild.out" freq="1" id="218974504#3_1" lane="218974504#3_1" pos="-50.00" endPos="-1"/>
  <laneAreaDetector file="ild.out" freq="1" id="218974504#3_2" lane="218974504#3_2" pos="-50.00" endPos="-1"/>
  <laneAreaDetector file="ild.out" freq="1" id="219053199#3_0" lane="219053199#3_0" pos="-12.73" endPos="-1"/>
  <laneAreaDetector file="ild.out" freq="1" id="219053199#3_1" lane="219053199#3_1" pos="-12.73" endPos="-1"/>
  <laneAreaDetector file="ild.out" freq="1" id="219053199#3_2" lane="219053199#3_2" pos="-12.73" endPos="-1"/>
  <laneAreaDetector file="ild.out" freq="1" id="219096265_0" lane="219096265_0" pos="-23.00" endPos="-1"/>
  <laneAreaDetector file="ild.out" freq="1" id="219096265_1" lane="219096265_1" pos="-23.00" endPos="-1"/>
  <laneAreaDetector file="ild.out" freq="1" id="219096265_2" lane="219096265_2" pos="-23.00" endPos="-1"/>
  <laneAreaDetector file="ild.out" freq="1" id="219096265_3" lane="219096265_3" pos="-23.00" endPos="-1"/>
  <laneAreaDetector file="ild.out" freq="1" id="220027347#3_0" lane="220027347#3_0" pos="-50.00" endPos="-1"/>
  <laneAreaDetector file="ild.out" freq="1" id="220027347#3_1" lane="220027347#3_1" pos="-50.00" endPos="-1"/>
  <laneAreaDetector file="ild.out" freq="1" id="350127794#5_0" lane="350127794#5_0" pos="-47.15" endPos="-1"/>
  <laneAreaDetector file="ild.out" freq="1" id="420361195#0.464_0" lane="420361195#0.464_0" pos="-50.00" endPos="-1"/>
  <laneAreaDetector file="ild.out" freq="1" id="420383141#2_0" lane="420383141#2_0" pos="-50.00" endPos="-1"/>
  <laneAreaDetector file="ild.out" freq="1" id="420383141#2_1" lane="420383141#2_1" pos="-50.00" endPos="-1"/>
  <laneAreaDetector file="ild.out" freq="1" id="420383141#2_2" lane="420383141#2_2" pos="-50.00" endPos="-1"/>
  <laneAreaDetector file="ild.out" freq="1" id="474532059#5_0" lane="474532059#5_0" pos="-27.50" endPos="-1"/>
  <laneAreaDetector file="ild.out" freq="1" id="474532059#5_1" lane="474532059#5_1" pos="-27.50" endPos="-1"/>
  <laneAreaDetector file="ild.out" freq="1" id="517641011#6_0" lane="517641011#6_0" pos="-50.00" endPos="-1"/>
  <laneAreaDetector file="ild.out" freq="1" id="517641011#6_1" lane="517641011#6_1" pos="-50.00" endPos="-1"/>
  <laneAreaDetector file="ild.out" freq="1" id="517641011#6_2" lane="517641011#6_2" pos="-50.00" endPos="-1"/>
  <laneAreaDetector file="ild.out" freq="1" id="517641017#5_0" lane="517641017#5_0" pos="-50.00" endPos="-1"/>
  <laneAreaDetector file="ild.out" freq="1" id="517641017#5_1" lane="517641017#5_1" pos="-50.00" endPos="-1"/>
  <laneAreaDetector file="ild.out" freq="1" id="517641017#5_2" lane="517641017#5_2" pos="-50.00" endPos="-1"/>
  <laneAreaDetector file="ild.out" freq="1" id="517641017#5_3" lane="517641017#5_3" pos="-50.00" endPos="-1"/>
  <laneAreaDetector file="ild.out" freq="1" id="517641026#2_0" lane="517641026#2_0" pos="-50.00" endPos="-1"/>
  <laneAreaDetector file="ild.out" freq="1" id="517641026#2_1" lane="517641026#2_1" pos="-50.00" endPos="-1"/>
  <laneAreaDetector file="ild.out" freq="1" id="517641026#2_2" lane="517641026#2_2" pos="-50.00" endPos="-1"/>
  <laneAreaDetector file="ild.out" freq="1" id="517706841#4_0" lane="517706841#4_0" pos="-50.00" endPos="-1"/>
  <laneAreaDetector file="ild.out" freq="1" id="517706841#4_1" lane="517706841#4_1" pos="-50.00" endPos="-1"/>
  <laneAreaDetector file="ild.out" freq="1" id="656122981#2_0" lane="656122981#2_0" pos="-39.24" endPos="-1"/>
  <laneAreaDetector file="ild.out" freq="1" id="656122981#2_1" lane="656122981#2_1" pos="-39.24" endPos="-1"/>
  <laneAreaDetector file="ild.out" freq="1" id="656122981#2_2" lane="656122981#2_2" pos="-39.24" endPos="-1"/>
  <laneAreaDetector file="ild.out" freq="1" id="656122981#2_3" lane="656122981#2_3" pos="-39.24" endPos="-1"/>
  <laneAreaDetector file="ild.out" freq="1" id="717851360#2_0" lane="717851360#2_0" pos="-50.00" endPos="-1"/>
  <laneAreaDetector file="ild.out" freq="1" id="717851360#2_1" lane="717851360#2_1" pos="-50.00" endPos="-1"/>
  <laneAreaDetector file="ild.out" freq="1" id="717851360#2_2" lane="717851360#2_2" pos="-50.00" endPos="-1"/>
  <laneAreaDetector file="ild.out" freq="1" id="717851360#2_3" lane="717851360#2_3" pos="-50.00" endPos="-1"/>
  <laneAreaDetector file="ild.out" freq="1" id="717851360#2_4" lane="717851360#2_4" pos="-50.00" endPos="-1"/>
  <laneAreaDetector file="ild.out" freq="1" id="732213463#19_0" lane="732213463#19_0" pos="-50.00" endPos="-1"/>
  <laneAreaDetector file="ild.out" freq="1" id="732213463#8.123_0" lane="732213463#8.123_0" pos="-50.00" endPos="-1"/>
  <laneAreaDetector file="ild.out" freq="1" id="732213463#8.123_1" lane="732213463#8.123_1" pos="-50.00" endPos="-1"/>
  <laneAreaDetector file="ild.out" freq="1" id="73541403#12_0" lane="73541403#12_0" pos="-50.00" endPos="-1"/>
  <laneAreaDetector file="ild.out" freq="1" id="782892488#0_0" lane="782892488#0_0" pos="-50.00" endPos="-1"/>
  <laneAreaDetector file="ild.out" freq="1" id="782892488#0_1" lane="782892488#0_1" pos="-50.00" endPos="-1"/>
  <laneAreaDetector file="ild.out" freq="1" id="782892488#0_2" lane="782892488#0_2" pos="-50.00" endPos="-1"/>
  <laneAreaDetector file="ild.out" freq="1" id="782892488#0_3" lane="782892488#0_3" pos="-50.00" endPos="-1"/>
  <laneAreaDetector file="ild.out" freq="1" id="782892488#3_0" lane="782892488#3_0" pos="-45.28" endPos="-1"/>
  <laneAreaDetector file="ild.out" freq="1" id="782892488#3_1" lane="782892488#3_1" pos="-45.28" endPos="-1"/>
  <laneAreaDetector file="ild.out" freq="1" id="782892488#3_2" lane="782892488#3_2" pos="-45.28" endPos="-1"/>
  <laneAreaDetector file="ild.out" freq="1" id="824132484_0" lane="824132484_0" pos="-50.00" endPos="-1"/>
  <laneAreaDetector file="ild.out" freq="1" id="824132484_1" lane="824132484_1" pos="-50.00" endPos="-1"/>
  <laneAreaDetector file="ild.out" freq="1" id="824132484_2" lane="824132484_2" pos="-50.00" endPos="-1"/>
  <laneAreaDetector file="ild.out" freq="1" id="908646367#10_0" lane="908646367#10_0" pos="-50.00" endPos="-1"/>
  <laneAreaDetector file="ild.out" freq="1" id="908646367#10_1" lane="908646367#10_1" pos="-50.00" endPos="-1"/>
  <laneAreaDetector file="ild.out" freq="1" id="908694578#6_0" lane="908694578#6_0" pos="-50.00" endPos="-1"/>
  <laneAreaDetector file="ild.out" freq="1" id="913565824#0_0" lane="913565824#0_0" pos="-50.00" endPos="-1"/>
  <laneAreaDetector file="ild.out" freq="1" id="913565824#0_1" lane="913565824#0_1" pos="-50.00" endPos="-1"/>
  <laneAreaDetector file="ild.out" freq="1" id="913565824#0_2" lane="913565824#0_2" pos="-50.00" endPos="-1"/>
  <laneAreaDetector file="ild.out" freq="1" id="913565824#0_3" lane="913565824#0_3" pos="-50.00" endPos="-1"/>
  <laneAreaDetector file="ild.out" freq="1" id="913565824#0_4" lane="913565824#0_4" pos="-50.00" endPos="-1"/>
  <laneAreaDetector file="ild.out" freq="1" id="913565824#4_0" lane="913565824#4_0" pos="-50.00" endPos="-1"/>
  <laneAreaDetector file="ild.out" freq="1" id="913565824#4_1" lane="913565824#4_1" pos="-50.00" endPos="-1"/>
  <laneAreaDetector file="ild.out" freq="1" id="913565824#4_2" lane="913565824#4_2" pos="-50.00" endPos="-1"/>
  <laneAreaDetector file="ild.out" freq="1" id="913565824#4_3" lane="913565824#4_3" pos="-50.00" endPos="-1"/>
  <laneAreaDetector file="ild.out" freq="1" id="919117822#4_0" lane="919117822#4_0" pos="-46.14" endPos="-1"/>
  <laneAreaDetector file="ild.out" freq="1" id="919117822#4_1" lane="919117822#4_1" pos="-46.14" endPos="-1"/>
  <laneAreaDetector file="ild.out" freq="1" id="919117822#4_2" lane="919117822#4_2" pos="-46.14" endPos="-1"/>
  <laneAreaDetector file="ild.out" freq="1" id="gneE26_0" lane="gneE26_0" pos="-50.00" endPos="-1"/>
  <laneAreaDetector file="ild.out" freq="1" id="gneE26_1" lane="gneE26_1" pos="-50.00" endPos="-1"/>
  <laneAreaDetector file="ild.out" freq="1" id="gneE28_0" lane="gneE28_0" pos="-44.48" endPos="-1"/>
  <laneAreaDetector file="ild.out" freq="1" id="gneE28_1" lane="gneE28_1" pos="-44.48" endPos="-1"/>
  <laneAreaDetector file="ild.out" freq="1" id="gneE31_0" lane="gneE31_0" pos="-50.00" endPos="-1"/>
  <laneAreaDetector file="ild.out" freq="1" id="gneE32_0" lane="gneE32_0" pos="-50.00" endPos="-1"/>
  <laneAreaDetector file="ild.out" freq="1" id="gneE32_1" lane="gneE32_1" pos="-50.00" endPos="-1"/>
  <laneAreaDetector file="ild.out" freq="1" id="gneE34_0" lane="gneE34_0" pos="-50.00" endPos="-1"/>
  <laneAreaDetector file="ild.out" freq="1" id="gneE34_1" lane="gneE34_1" pos="-50.00" endPos="-1"/>
  <laneAreaDetector file="ild.out" freq="1" id="gneE36_0" lane="gneE36_0" pos="-42.88" endPos="-1"/>
  <laneAreaDetector file="ild.out" freq="1" id="gneE36_1" lane="gneE36_1" pos="-42.88" endPos="-1"/>
  <laneAreaDetector file="ild.out" freq="1" id="gneE36_2" lane="gneE36_2" pos="-42.88" endPos="-1"/>
  <laneAreaDetector file="ild.out" freq="1" id="gneE38_0" lane="gneE38_0" pos="-50.00" endPos="-1"/>
  <laneAreaDetector file="ild.out" freq="1" id="-218923156#1_1" lane="-218923156#1_1" pos="-23.62" endPos="-1"/>
  <laneAreaDetector file="ild.out" freq="1" id="-218923156#1_2" lane="-218923156#1_2" pos="-23.62" endPos="-1"/>
  <laneAreaDetector file="ild.out" freq="1" id="-218923156#1_3" lane="-218923156#1_3" pos="-23.62" endPos="-1"/>
  <laneAreaDetector file="ild.out" freq="1" id="-218923156#1_4" lane="-218923156#1_4" pos="-23.62" endPos="-1"/>
  <laneAreaDetector file="ild.out" freq="1" id="-218923156#1_5" lane="-218923156#1_5" pos="-23.62" endPos="-1"/>
  <laneAreaDetector file="ild.out" freq="1" id="-219053199#7_0" lane="-219053199#7_0" pos="-32.60" endPos="-1"/>
  <laneAreaDetector file="ild.out" freq="1" id="-219053199#7_1" lane="-219053199#7_1" pos="-32.60" endPos="-1"/>
  <laneAreaDetector file="ild.out" freq="1" id="-219053199#7_2" lane="-219053199#7_2" pos="-32.60" endPos="-1"/>
  <laneAreaDetector file="ild.out" freq="1" id="-329995230#0_0" lane="-329995230#0_0" pos="-9.70" endPos="-1"/>
  <laneAreaDetector file="ild.out" freq="1" id="184083199#0.274_0" lane="184083199#0.274_0" pos="-29.55" endPos="-1"/>
  <laneAreaDetector file="ild.out" freq="1" id="184083199#0.274_1" lane="184083199#0.274_1" pos="-29.55" endPos="-1"/>
  <laneAreaDetector file="ild.out" freq="1" id="184083199#0.274_2" lane="184083199#0.274_2" pos="-29.55" endPos="-1"/>
  <laneAreaDetector file="ild.out" freq="1" id="218923160#0-AddedOffRampEdge_1" lane="218923160#0-AddedOffRampEdge_1" pos="-19.88" endPos="-1"/>
  <laneAreaDetector file="ild.out" freq="1" id="218923160#0-AddedOffRampEdge_2" lane="218923160#0-AddedOffRampEdge_2" pos="-19.88" endPos="-1"/>
  <laneAreaDetector file="ild.out" freq="1" id="218923160#0-AddedOffRampEdge_3" lane="218923160#0-AddedOffRampEdge_3" pos="-19.88" endPos="-1"/>
  <laneAreaDetector file="ild.out" freq="1" id="219053199#0_1" lane="219053199#0_1" pos="-37.27" endPos="-1"/>
  <laneAreaDetector file="ild.out" freq="1" id="219053199#0_2" lane="219053199#0_2" pos="-37.27" endPos="-1"/>
  <laneAreaDetector file="ild.out" freq="1" id="219053199#0_3" lane="219053199#0_3" pos="-37.27" endPos="-1"/>
  <laneAreaDetector file="ild.out" freq="1" id="350127794#4_0" lane="350127794#4_0" pos="-2.85" endPos="-1"/>
  <laneAreaDetector file="ild.out" freq="1" id="469260694#6_0" lane="469260694#6_0" pos="-5.52" endPos="-1"/>
  <laneAreaDetector file="ild.out" freq="1" id="469260694#6_1" lane="469260694#6_1" pos="-5.52" endPos="-1"/>
  <laneAreaDetector file="ild.out" freq="1" id="474532059#4.95_0" lane="474532059#4.95_0" pos="-22.50" endPos="-1"/>
  <laneAreaDetector file="ild.out" freq="1" id="474532059#4.95_1" lane="474532059#4.95_1" pos="-22.50" endPos="-1"/>
  <laneAreaDetector file="ild.out" freq="1" id="782892488#2_0" lane="782892488#2_0" pos="-4.72" endPos="-1"/>
  <laneAreaDetector file="ild.out" freq="1" id="782892488#2_1" lane="782892488#2_1" pos="-4.72" endPos="-1"/>
  <laneAreaDetector file="ild.out" freq="1" id="782892488#2_2" lane="782892488#2_2" pos="-4.72" endPos="-1"/>
  <laneAreaDetector file="ild.out" freq="1" id="919117822#3_0" lane="919117822#3_0" pos="-3.86" endPos="-1"/>
  <laneAreaDetector file="ild.out" freq="1" id="919117822#3_1" lane="919117822#3_1" pos="-3.86" endPos="-1"/>
  <laneAreaDetector file="ild.out" freq="1" id="gneE3_0" lane="gneE3_0" pos="-27.00" endPos="-1"/>
  <laneAreaDetector file="ild.out" freq="1" id="gneE3_1" lane="gneE3_1" pos="-27.00" endPos="-1"/>
  <laneAreaDetector file="ild.out" freq="1" id="gneE3_2" lane="gneE3_2" pos="-27.00" endPos="-1"/>
  <laneAreaDetector file="ild.out" freq="1" id="gneE3_3" lane="gneE3_3" pos="-27.00" endPos="-1"/>
  <laneAreaDetector file="ild.out" freq="1" id="gneE40_0" lane="gneE40_0" pos="-7.12" endPos="-1"/>
  <laneAreaDetector file="ild.out" freq="1" id="gneE40_1" lane="gneE40_1" pos="-7.12" endPos="-1"/>
  <laneAreaDetector file="ild.out" freq="1" id="gneE40_2" lane="gneE40_2" pos="-7.12" endPos="-1"/>
  <laneAreaDetector file="ild.out" freq="1" id="gneE41_0" lane="gneE41_0" pos="-10.76" endPos="-1"/>
  <laneAreaDetector file="ild.out" freq="1" id="gneE41_1" lane="gneE41_1" pos="-10.76" endPos="-1"/>
  <laneAreaDetector file="ild.out" freq="1" id="gneE41_2" lane="gneE41_2" pos="-10.76" endPos="-1"/>
</additional>
