<routes>
    <vType accel="5" decel="10" id="type1" length="5.00" />
    <vehicle depart="0.00" id="f_0_0.0" type="type1">
        <route edges="np1_nt1 nt1_npc npc_nt3 nt3_np6" />
    </vehicle>
    <vehicle depart="0.00" id="f_1_0.0" type="type1">
        <route edges="np2_nt1 nt1_npc npc_nt5 nt5_np11" />
    </vehicle>
    <vehicle depart="0.00" id="f_2_0.0" type="type1">
        <route edges="np3_nt1 nt1_nt2 nt2_np4" />
    </vehicle>
    <vehicle depart="0.00" id="f_3_0.0" type="type1">
        <route edges="np8_nt4 nt4_nt5 nt5_np11" />
    </vehicle>
    <vehicle depart="0.00" id="f_4_0.0" type="type1">
        <route edges="np9_nt4 nt4_nt5 nt5_nt6 nt6_np12" />
    </vehicle>
    <vehicle depart="0.00" departPos="random_free" id="mf_4_0.0" type="type1">
        <route edges="nt1_nt2 nt2_np4" />
    </vehicle>
    <vehicle depart="2.00" departPos="random_free" id="mf_5_0.0" type="type1">
        <route edges="nt1_nt6 nt6_np13" />
    </vehicle>
    <vehicle depart="3.00" departPos="random_free" id="mf_3_0.0" type="type1">
        <route edges="nt4_nt5 nt5_nt6 nt6_np12" />
    </vehicle>
    <vehicle depart="4.00" departPos="random_free" id="mf_5_0.1" type="type1">
        <route edges="nt1_nt6 nt6_np13" />
    </vehicle>
    <vehicle depart="6.00" id="f_1_0.1" type="type1">
        <route edges="np2_nt1 nt1_nt2 nt2_np4" />
    </vehicle>
    <vehicle depart="6.00" id="f_4_0.1" type="type1">
        <route edges="np9_nt4 nt4_nt3 nt3_np6" />
    </vehicle>
    <vehicle depart="7.20" id="f_0_0.1" type="type1">
        <route edges="np1_nt1 nt1_nt2 nt2_np4" />
    </vehicle>
    <vehicle depart="8.00" departPos="random_free" id="mf_3_0.1" type="type1">
        <route edges="nt4_nt5 nt5_nt6 nt6_np12" />
    </vehicle>
    <vehicle depart="9.00" departPos="random_free" id="mf_4_0.1" type="type1">
        <route edges="nt1_nt2 nt2_np4" />
    </vehicle>
    <vehicle depart="10.00" departPos="random_free" id="mf_3_0.2" type="type1">
        <route edges="nt4_nt5 nt5_nt6 nt6_np12" />
    </vehicle>
    <vehicle depart="10.00" departPos="random_free" id="mf_4_0.2" type="type1">
        <route edges="nt1_nt2 nt2_np4" />
    </vehicle>
    <vehicle depart="10.00" departPos="random_free" id="mf_5_0.2" type="type1">
        <route edges="nt1_nt6 nt6_np13" />
    </vehicle>
    <vehicle depart="11.00" departPos="random_free" id="mf_3_0.3" type="type1">
        <route edges="nt4_nt5 nt5_nt6 nt6_np12" />
    </vehicle>
    <vehicle depart="12.00" id="f_1_0.2" type="type1">
        <route edges="np2_nt1 nt1_npc npc_nt3 nt3_nt2 nt2_np5" />
    </vehicle>
    <vehicle depart="12.00" id="f_4_0.2" type="type1">
        <route edges="np9_nt4 nt4_nt3 nt3_nt2 nt2_np5" />
    </vehicle>
    <vehicle depart="12.00" departPos="random_free" id="mf_3_0.4" type="type1">
        <route edges="nt4_nt5 nt5_nt6 nt6_np12" />
    </vehicle>
    <vehicle depart="12.00" departPos="random_free" id="mf_5_0.3" type="type1">
        <route edges="nt1_nt6 nt6_np13" />
    </vehicle>
    <vehicle depart="14.40" id="f_0_0.2" type="type1">
        <route edges="np1_nt1 nt1_nt6 nt6_np13" />
    </vehicle>
    <vehicle depart="15.00" departPos="random_free" id="mf_4_0.3" type="type1">
        <route edges="nt1_nt2 nt2_np4" />
    </vehicle>
    <vehicle depart="16.00" departPos="random_free" id="mf_4_0.4" type="type1">
        <route edges="nt1_nt2 nt2_np4" />
    </vehicle>
    <vehicle depart="16.00" departPos="random_free" id="mf_5_0.4" type="type1">
        <route edges="nt1_nt6 nt6_np13" />
    </vehicle>
    <vehicle depart="17.00" departPos="random_free" id="mf_3_0.5" type="type1">
        <route edges="nt4_nt5 nt5_nt6 nt6_np12" />
    </vehicle>
    <vehicle depart="18.00" id="f_1_0.3" type="type1">
        <route edges="np2_nt1 nt1_nt2 nt2_np4" />
    </vehicle>
    <vehicle depart="18.00" id="f_4_0.3" type="type1">
        <route edges="np9_nt4 nt4_nt5 nt5_nt6 nt6_np12" />
    </vehicle>
    <vehicle depart="18.00" departPos="random_free" id="mf_4_0.5" type="type1">
        <route edges="nt1_nt2 nt2_np4" />
    </vehicle>
    <vehicle depart="18.00" departPos="random_free" id="mf_5_0.5" type="type1">
        <route edges="nt1_nt6 nt6_np13" />
    </vehicle>
    <vehicle depart="20.00" departPos="random_free" id="mf_3_0.6" type="type1">
        <route edges="nt4_nt5 nt5_nt6 nt6_np12" />
    </vehicle>
    <vehicle depart="21.00" departPos="random_free" id="mf_3_0.7" type="type1">
        <route edges="nt4_nt5 nt5_nt6 nt6_np12" />
    </vehicle>
    <vehicle depart="21.60" id="f_0_0.3" type="type1">
        <route edges="np1_nt1 nt1_npc npc_nt3 nt3_nt2 nt2_np5" />
    </vehicle>
    <vehicle depart="22.00" departPos="random_free" id="mf_4_0.6" type="type1">
        <route edges="nt1_nt2 nt2_np4" />
    </vehicle>
    <vehicle depart="24.00" id="f_1_0.4" type="type1">
        <route edges="np2_nt1 nt1_npc npc_nt3 nt3_np6" />
    </vehicle>
    <vehicle depart="24.00" id="f_4_0.4" type="type1">
        <route edges="np9_nt4 nt4_nt3 nt3_nt2 nt2_np5" />
    </vehicle>
    <vehicle depart="26.00" departPos="random_free" id="mf_3_0.8" type="type1">
        <route edges="nt4_nt5 nt5_nt6 nt6_np12" />
    </vehicle>
    <vehicle depart="26.00" departPos="random_free" id="mf_5_0.6" type="type1">
        <route edges="nt1_nt6 nt6_np13" />
    </vehicle>
    <vehicle depart="27.00" departPos="random_free" id="mf_3_0.9" type="type1">
        <route edges="nt4_nt5 nt5_nt6 nt6_np12" />
    </vehicle>
    <vehicle depart="27.00" departPos="random_free" id="mf_5_0.7" type="type1">
        <route edges="nt1_nt6 nt6_np13" />
    </vehicle>
    <vehicle depart="28.00" departPos="random_free" id="mf_3_0.10" type="type1">
        <route edges="nt4_nt5 nt5_nt6 nt6_np12" />
    </vehicle>
    <vehicle depart="28.80" id="f_0_0.4" type="type1">
        <route edges="np1_nt1 nt1_npc npc_nt5 nt5_nt6 nt6_np12" />
    </vehicle>
    <vehicle depart="29.00" departPos="random_free" id="mf_4_0.7" type="type1">
        <route edges="nt1_nt2 nt2_np4" />
    </vehicle>
    <vehicle depart="29.00" departPos="random_free" id="mf_5_0.8" type="type1">
        <route edges="nt1_nt6 nt6_np13" />
    </vehicle>
    <vehicle depart="30.00" id="f_1_0.5" type="type1">
        <route edges="np2_nt1 nt1_npc npc_nt5 nt5_np11" />
    </vehicle>
    <vehicle depart="30.00" id="f_4_0.5" type="type1">
        <route edges="np9_nt4 nt4_nt5 nt5_nt6 nt6_np12" />
    </vehicle>
    <vehicle depart="30.00" departPos="random_free" id="mf_3_0.11" type="type1">
        <route edges="nt4_nt5 nt5_nt6 nt6_np12" />
    </vehicle>
    <vehicle depart="30.00" departPos="random_free" id="mf_5_0.9" type="type1">
        <route edges="nt1_nt6 nt6_np13" />
    </vehicle>
    <vehicle depart="33.00" departPos="random_free" id="mf_4_0.8" type="type1">
        <route edges="nt1_nt2 nt2_np4" />
    </vehicle>
    <vehicle depart="33.00" departPos="random_free" id="mf_5_0.10" type="type1">
        <route edges="nt1_nt6 nt6_np13" />
    </vehicle>
    <vehicle depart="34.00" departPos="random_free" id="mf_4_0.9" type="type1">
        <route edges="nt1_nt2 nt2_np4" />
    </vehicle>
    <vehicle depart="35.00" departPos="random_free" id="mf_3_0.12" type="type1">
        <route edges="nt4_nt5 nt5_nt6 nt6_np12" />
    </vehicle>
    <vehicle depart="36.00" id="f_0_0.5" type="type1">
        <route edges="np1_nt1 nt1_nt2 nt2_np4" />
    </vehicle>
    <vehicle depart="36.00" id="f_1_0.6" type="type1">
        <route edges="np2_nt1 nt1_nt2 nt2_np4" />
    </vehicle>
    <vehicle depart="36.00" id="f_2_0.1" type="type1">
        <route edges="np3_nt1 nt1_npc npc_nt3 nt3_np6" />
    </vehicle>
    <vehicle depart="36.00" id="f_3_0.1" type="type1">
        <route edges="np8_nt4 nt4_nt3 nt3_nt2 nt2_np5" />
    </vehicle>
    <vehicle depart="36.00" id="f_4_0.6" type="type1">
        <route edges="np9_nt4 nt4_nt3 nt3_nt2 nt2_np5" />
    </vehicle>
    <vehicle depart="37.00" departPos="random_free" id="mf_3_0.13" type="type1">
        <route edges="nt4_nt5 nt5_nt6 nt6_np12" />
    </vehicle>
    <vehicle depart="41.00" departPos="random_free" id="mf_4_0.10" type="type1">
        <route edges="nt1_nt2 nt2_np4" />
    </vehicle>
    <vehicle depart="42.00" id="f_1_0.7" type="type1">
        <route edges="np2_nt1 nt1_npc npc_nt3 nt3_np6" />
    </vehicle>
    <vehicle depart="42.00" id="f_4_0.7" type="type1">
        <route edges="np9_nt4 nt4_nt3 nt3_nt2 nt2_np5" />
    </vehicle>
    <vehicle depart="42.00" departPos="random_free" id="mf_3_0.14" type="type1">
        <route edges="nt4_nt5 nt5_nt6 nt6_np12" />
    </vehicle>
    <vehicle depart="43.00" departPos="random_free" id="mf_3_0.15" type="type1">
        <route edges="nt4_nt5 nt5_nt6 nt6_np12" />
    </vehicle>
    <vehicle depart="43.20" id="f_0_0.6" type="type1">
        <route edges="np1_nt1 nt1_nt6 nt6_np13" />
    </vehicle>
    <vehicle depart="44.00" departPos="random_free" id="mf_5_0.11" type="type1">
        <route edges="nt1_nt6 nt6_np13" />
    </vehicle>
    <vehicle depart="46.00" departPos="random_free" id="mf_4_0.11" type="type1">
        <route edges="nt1_nt2 nt2_np4" />
    </vehicle>
    <vehicle depart="47.00" departPos="random_free" id="mf_3_0.16" type="type1">
        <route edges="nt4_nt5 nt5_nt6 nt6_np12" />
    </vehicle>
    <vehicle depart="47.00" departPos="random_free" id="mf_4_0.12" type="type1">
        <route edges="nt1_nt2 nt2_np4" />
    </vehicle>
    <vehicle depart="48.00" id="f_1_0.8" type="type1">
        <route edges="np2_nt1 nt1_nt2 nt2_np4" />
    </vehicle>
    <vehicle depart="48.00" id="f_4_0.8" type="type1">
        <route edges="np9_nt4 nt4_nt3 nt3_nt2 nt2_np5" />
    </vehicle>
    <vehicle depart="48.00" departPos="random_free" id="mf_4_0.13" type="type1">
        <route edges="nt1_nt2 nt2_np4" />
    </vehicle>
    <vehicle depart="48.00" departPos="random_free" id="mf_5_0.12" type="type1">
        <route edges="nt1_nt6 nt6_np13" />
    </vehicle>
    <vehicle depart="49.00" departPos="random_free" id="mf_3_0.17" type="type1">
        <route edges="nt4_nt5 nt5_nt6 nt6_np12" />
    </vehicle>
    <vehicle depart="49.00" departPos="random_free" id="mf_5_0.13" type="type1">
        <route edges="nt1_nt6 nt6_np13" />
    </vehicle>
    <vehicle depart="50.00" departPos="random_free" id="mf_5_0.14" type="type1">
        <route edges="nt1_nt6 nt6_np13" />
    </vehicle>
    <vehicle depart="50.40" id="f_0_0.7" type="type1">
        <route edges="np1_nt1 nt1_nt6 nt6_np13" />
    </vehicle>
    <vehicle depart="51.00" departPos="random_free" id="mf_4_0.14" type="type1">
        <route edges="nt1_nt2 nt2_np4" />
    </vehicle>
    <vehicle depart="52.00" departPos="random_free" id="mf_3_0.18" type="type1">
        <route edges="nt4_nt5 nt5_nt6 nt6_np12" />
    </vehicle>
    <vehicle depart="54.00" id="f_1_0.9" type="type1">
        <route edges="np2_nt1 nt1_nt2 nt2_np4" />
    </vehicle>
    <vehicle depart="54.00" id="f_4_0.9" type="type1">
        <route edges="np9_nt4 nt4_nt3 nt3_nt2 nt2_np5" />
    </vehicle>
    <vehicle depart="56.00" departPos="random_free" id="mf_4_0.15" type="type1">
        <route edges="nt1_nt2 nt2_np4" />
    </vehicle>
    <vehicle depart="57.00" departPos="random_free" id="mf_4_0.16" type="type1">
        <route edges="nt1_nt2 nt2_np4" />
    </vehicle>
    <vehicle depart="57.60" id="f_0_0.8" type="type1">
        <route edges="np1_nt1 nt1_nt2 nt2_np4" />
    </vehicle>
    <vehicle depart="58.00" departPos="random_free" id="mf_3_0.19" type="type1">
        <route edges="nt4_nt5 nt5_nt6 nt6_np12" />
    </vehicle>
    <vehicle depart="60.00" id="f_1_0.10" type="type1">
        <route edges="np2_nt1 nt1_npc npc_nt3 nt3_np6" />
    </vehicle>
    <vehicle depart="60.00" id="f_4_0.10" type="type1">
        <route edges="np9_nt4 nt4_nt5 nt5_nt6 nt6_np12" />
    </vehicle>
    <vehicle depart="62.00" departPos="random_free" id="mf_3_0.20" type="type1">
        <route edges="nt4_nt5 nt5_nt6 nt6_np12" />
    </vehicle>
    <vehicle depart="62.00" departPos="random_free" id="mf_4_0.17" type="type1">
        <route edges="nt1_nt2 nt2_np4" />
    </vehicle>
    <vehicle depart="64.00" departPos="random_free" id="mf_3_0.21" type="type1">
        <route edges="nt4_nt5 nt5_nt6 nt6_np12" />
    </vehicle>
    <vehicle depart="64.00" departPos="random_free" id="mf_4_0.18" type="type1">
        <route edges="nt1_nt2 nt2_np4" />
    </vehicle>
    <vehicle depart="64.80" id="f_0_0.9" type="type1">
        <route edges="np1_nt1 nt1_npc npc_nt3 nt3_np6" />
    </vehicle>
    <vehicle depart="65.00" departPos="random_free" id="mf_3_0.22" type="type1">
        <route edges="nt4_nt5 nt5_nt6 nt6_np12" />
    </vehicle>
    <vehicle depart="65.00" departPos="random_free" id="mf_4_0.19" type="type1">
        <route edges="nt1_nt2 nt2_np4" />
    </vehicle>
    <vehicle depart="66.00" id="f_1_0.11" type="type1">
        <route edges="np2_nt1 nt1_npc npc_nt5 nt5_nt6 nt6_np12" />
    </vehicle>
    <vehicle depart="66.00" id="f_4_0.11" type="type1">
        <route edges="np9_nt4 nt4_nt3 nt3_np6" />
    </vehicle>
    <vehicle depart="67.00" departPos="random_free" id="mf_4_0.20" type="type1">
        <route edges="nt1_nt2 nt2_np4" />
    </vehicle>
    <vehicle depart="68.00" departPos="random_free" id="mf_5_0.15" type="type1">
        <route edges="nt1_nt6 nt6_np13" />
    </vehicle>
    <vehicle depart="69.00" departPos="random_free" id="mf_4_0.21" type="type1">
        <route edges="nt1_nt2 nt2_np4" />
    </vehicle>
    <vehicle depart="69.00" departPos="random_free" id="mf_5_0.16" type="type1">
        <route edges="nt1_nt6 nt6_np13" />
    </vehicle>
    <vehicle depart="71.00" departPos="random_free" id="mf_4_0.22" type="type1">
        <route edges="nt1_nt2 nt2_np4" />
    </vehicle>
    <vehicle depart="72.00" id="f_0_0.10" type="type1">
        <route edges="np1_nt1 nt1_nt6 nt6_np13" />
    </vehicle>
    <vehicle depart="72.00" id="f_1_0.12" type="type1">
        <route edges="np2_nt1 nt1_npc npc_nt3 nt3_np6" />
    </vehicle>
    <vehicle depart="72.00" id="f_2_0.2" type="type1">
        <route edges="np3_nt1 nt1_npc npc_nt5 nt5_np11" />
    </vehicle>
    <vehicle depart="72.00" id="f_3_0.2" type="type1">
        <route edges="np8_nt4 nt4_nt5 nt5_np11" />
    </vehicle>
    <vehicle depart="72.00" id="f_4_0.12" type="type1">
        <route edges="np9_nt4 nt4_nt5 nt5_nt6 nt6_np12" />
    </vehicle>
    <vehicle depart="73.00" departPos="random_free" id="mf_3_0.23" type="type1">
        <route edges="nt4_nt5 nt5_nt6 nt6_np12" />
    </vehicle>
    <vehicle depart="74.00" departPos="random_free" id="mf_3_0.24" type="type1">
        <route edges="nt4_nt5 nt5_nt6 nt6_np12" />
    </vehicle>
    <vehicle depart="74.00" departPos="random_free" id="mf_5_0.17" type="type1">
        <route edges="nt1_nt6 nt6_np13" />
    </vehicle>
    <vehicle depart="75.00" departPos="random_free" id="mf_3_0.25" type="type1">
        <route edges="nt4_nt5 nt5_nt6 nt6_np12" />
    </vehicle>
    <vehicle depart="77.00" departPos="random_free" id="mf_3_0.26" type="type1">
        <route edges="nt4_nt5 nt5_nt6 nt6_np12" />
    </vehicle>
    <vehicle depart="77.00" departPos="random_free" id="mf_4_0.23" type="type1">
        <route edges="nt1_nt2 nt2_np4" />
    </vehicle>
    <vehicle depart="77.00" departPos="random_free" id="mf_5_0.18" type="type1">
        <route edges="nt1_nt6 nt6_np13" />
    </vehicle>
    <vehicle depart="78.00" id="f_1_0.13" type="type1">
        <route edges="np2_nt1 nt1_nt6 nt6_np13" />
    </vehicle>
    <vehicle depart="78.00" id="f_4_0.13" type="type1">
        <route edges="np9_nt4 nt4_nt3 nt3_np6" />
    </vehicle>
    <vehicle depart="78.00" departPos="random_free" id="mf_5_0.19" type="type1">
        <route edges="nt1_nt6 nt6_np13" />
    </vehicle>
    <vehicle depart="79.00" departPos="random_free" id="mf_4_0.24" type="type1">
        <route edges="nt1_nt2 nt2_np4" />
    </vehicle>
    <vehicle depart="79.20" id="f_0_0.11" type="type1">
        <route edges="np1_nt1 nt1_nt2 nt2_np4" />
    </vehicle>
    <vehicle depart="80.00" departPos="random_free" id="mf_3_0.27" type="type1">
        <route edges="nt4_nt5 nt5_nt6 nt6_np12" />
    </vehicle>
    <vehicle depart="81.00" departPos="random_free" id="mf_4_0.25" type="type1">
        <route edges="nt1_nt2 nt2_np4" />
    </vehicle>
    <vehicle depart="82.00" departPos="random_free" id="mf_4_0.26" type="type1">
        <route edges="nt1_nt2 nt2_np4" />
    </vehicle>
    <vehicle depart="83.00" departPos="random_free" id="mf_5_0.20" type="type1">
        <route edges="nt1_nt6 nt6_np13" />
    </vehicle>
    <vehicle depart="84.00" id="f_1_0.14" type="type1">
        <route edges="np2_nt1 nt1_npc npc_nt3 nt3_np6" />
    </vehicle>
    <vehicle depart="84.00" id="f_4_0.14" type="type1">
        <route edges="np9_nt4 nt4_nt5 nt5_np11" />
    </vehicle>
    <vehicle depart="84.00" departPos="random_free" id="mf_3_0.28" type="type1">
        <route edges="nt4_nt5 nt5_nt6 nt6_np12" />
    </vehicle>
    <vehicle depart="85.00" departPos="random_free" id="mf_3_0.29" type="type1">
        <route edges="nt4_nt5 nt5_nt6 nt6_np12" />
    </vehicle>
    <vehicle depart="86.40" id="f_0_0.12" type="type1">
        <route edges="np1_nt1 nt1_nt6 nt6_np13" />
    </vehicle>
    <vehicle depart="87.00" departPos="random_free" id="mf_4_0.27" type="type1">
        <route edges="nt1_nt2 nt2_np4" />
    </vehicle>
    <vehicle depart="88.00" departPos="random_free" id="mf_3_0.30" type="type1">
        <route edges="nt4_nt5 nt5_nt6 nt6_np12" />
    </vehicle>
    <vehicle depart="88.00" departPos="random_free" id="mf_5_0.21" type="type1">
        <route edges="nt1_nt6 nt6_np13" />
    </vehicle>
    <vehicle depart="89.00" departPos="random_free" id="mf_3_0.31" type="type1">
        <route edges="nt4_nt5 nt5_nt6 nt6_np12" />
    </vehicle>
    <vehicle depart="90.00" id="f_1_0.15" type="type1">
        <route edges="np2_nt1 nt1_npc npc_nt3 nt3_nt2 nt2_np5" />
    </vehicle>
    <vehicle depart="90.00" id="f_4_0.15" type="type1">
        <route edges="np9_nt4 nt4_nt5 nt5_nt6 nt6_np12" />
    </vehicle>
    <vehicle depart="90.00" departPos="random_free" id="mf_4_0.28" type="type1">
        <route edges="nt1_nt2 nt2_np4" />
    </vehicle>
    <vehicle depart="91.00" departPos="random_free" id="mf_4_0.29" type="type1">
        <route edges="nt1_nt2 nt2_np4" />
    </vehicle>
    <vehicle depart="93.60" id="f_0_0.13" type="type1">
        <route edges="np1_nt1 nt1_npc npc_nt3 nt3_np6" />
    </vehicle>
    <vehicle depart="95.00" departPos="random_free" id="mf_3_0.32" type="type1">
        <route edges="nt4_nt5 nt5_nt6 nt6_np12" />
    </vehicle>
    <vehicle depart="96.00" id="f_1_0.16" type="type1">
        <route edges="np2_nt1 nt1_npc npc_nt3 nt3_np6" />
    </vehicle>
    <vehicle depart="96.00" id="f_4_0.16" type="type1">
        <route edges="np9_nt4 nt4_nt3 nt3_nt2 nt2_np5" />
    </vehicle>
    <vehicle depart="96.00" departPos="random_free" id="mf_4_0.30" type="type1">
        <route edges="nt1_nt2 nt2_np4" />
    </vehicle>
    <vehicle depart="97.00" departPos="random_free" id="mf_4_0.31" type="type1">
        <route edges="nt1_nt2 nt2_np4" />
    </vehicle>
    <vehicle depart="98.00" departPos="random_free" id="mf_3_0.33" type="type1">
        <route edges="nt4_nt5 nt5_nt6 nt6_np12" />
    </vehicle>
    <vehicle depart="98.00" departPos="random_free" id="mf_4_0.32" type="type1">
        <route edges="nt1_nt2 nt2_np4" />
    </vehicle>
    <vehicle depart="99.00" departPos="random_free" id="mf_3_0.34" type="type1">
        <route edges="nt4_nt5 nt5_nt6 nt6_np12" />
    </vehicle>
    <vehicle depart="99.00" departPos="random_free" id="mf_5_0.22" type="type1">
        <route edges="nt1_nt6 nt6_np13" />
    </vehicle>
    <vehicle depart="100.80" id="f_0_0.14" type="type1">
        <route edges="np1_nt1 nt1_nt6 nt6_np13" />
    </vehicle>
    <vehicle depart="102.00" id="f_1_0.17" type="type1">
        <route edges="np2_nt1 nt1_npc npc_nt3 nt3_np6" />
    </vehicle>
    <vehicle depart="102.00" id="f_4_0.17" type="type1">
        <route edges="np9_nt4 nt4_nt3 nt3_nt2 nt2_np5" />
    </vehicle>
    <vehicle depart="102.00" departPos="random_free" id="mf_4_0.33" type="type1">
        <route edges="nt1_nt2 nt2_np4" />
    </vehicle>
    <vehicle depart="103.00" departPos="random_free" id="mf_5_0.23" type="type1">
        <route edges="nt1_nt6 nt6_np13" />
    </vehicle>
    <vehicle depart="104.00" departPos="random_free" id="mf_4_0.34" type="type1">
        <route edges="nt1_nt2 nt2_np4" />
    </vehicle>
    <vehicle depart="105.00" departPos="random_free" id="mf_5_0.24" type="type1">
        <route edges="nt1_nt6 nt6_np13" />
    </vehicle>
    <vehicle depart="108.00" id="f_0_0.15" type="type1">
        <route edges="np1_nt1 nt1_nt6 nt6_np13" />
    </vehicle>
    <vehicle depart="108.00" id="f_1_0.18" type="type1">
        <route edges="np2_nt1 nt1_npc npc_nt5 nt5_np11" />
    </vehicle>
    <vehicle depart="108.00" id="f_2_0.3" type="type1">
        <route edges="np3_nt1 nt1_npc npc_nt3 nt3_np6" />
    </vehicle>
    <vehicle depart="108.00" id="f_3_0.3" type="type1">
        <route edges="np8_nt4 nt4_nt5 nt5_nt6 nt6_np12" />
    </vehicle>
    <vehicle depart="108.00" id="f_4_0.18" type="type1">
        <route edges="np9_nt4 nt4_nt5 nt5_nt6 nt6_np12" />
    </vehicle>
    <vehicle depart="108.00" departPos="random_free" id="mf_5_0.25" type="type1">
        <route edges="nt1_nt6 nt6_np13" />
    </vehicle>
    <vehicle depart="110.00" departPos="random_free" id="mf_4_0.35" type="type1">
        <route edges="nt1_nt2 nt2_np4" />
    </vehicle>
    <vehicle depart="112.00" departPos="random_free" id="mf_3_0.35" type="type1">
        <route edges="nt4_nt5 nt5_nt6 nt6_np12" />
    </vehicle>
    <vehicle depart="113.00" departPos="random_free" id="mf_4_0.36" type="type1">
        <route edges="nt1_nt2 nt2_np4" />
    </vehicle>
    <vehicle depart="114.00" id="f_1_0.19" type="type1">
        <route edges="np2_nt1 nt1_npc npc_nt5 nt5_np11" />
    </vehicle>
    <vehicle depart="114.00" id="f_4_0.19" type="type1">
        <route edges="np9_nt4 nt4_nt5 nt5_nt6 nt6_np12" />
    </vehicle>
    <vehicle depart="114.00" departPos="random_free" id="mf_3_0.36" type="type1">
        <route edges="nt4_nt5 nt5_nt6 nt6_np12" />
    </vehicle>
    <vehicle depart="115.20" id="f_0_0.16" type="type1">
        <route edges="np1_nt1 nt1_nt6 nt6_np13" />
    </vehicle>
    <vehicle depart="116.00" departPos="random_free" id="mf_3_0.37" type="type1">
        <route edges="nt4_nt5 nt5_nt6 nt6_np12" />
    </vehicle>
    <vehicle depart="116.00" departPos="random_free" id="mf_4_0.37" type="type1">
        <route edges="nt1_nt2 nt2_np4" />
    </vehicle>
    <vehicle depart="117.00" departPos="random_free" id="mf_4_0.38" type="type1">
        <route edges="nt1_nt2 nt2_np4" />
    </vehicle>
    <vehicle depart="117.00" departPos="random_free" id="mf_5_0.26" type="type1">
        <route edges="nt1_nt6 nt6_np13" />
    </vehicle>
    <vehicle depart="118.00" departPos="random_free" id="mf_5_0.27" type="type1">
        <route edges="nt1_nt6 nt6_np13" />
    </vehicle>
    <vehicle depart="119.00" departPos="random_free" id="mf_5_0.28" type="type1">
        <route edges="nt1_nt6 nt6_np13" />
    </vehicle>
    <vehicle depart="120.00" id="f_1_0.20" type="type1">
        <route edges="np2_nt1 nt1_npc npc_nt5 nt5_np11" />
    </vehicle>
    <vehicle depart="120.00" id="f_4_0.20" type="type1">
        <route edges="np9_nt4 nt4_nt5 nt5_nt6 nt6_np12" />
    </vehicle>
    <vehicle depart="122.00" departPos="random_free" id="mf_3_0.38" type="type1">
        <route edges="nt4_nt5 nt5_nt6 nt6_np12" />
    </vehicle>
    <vehicle depart="122.40" id="f_0_0.17" type="type1">
        <route edges="np1_nt1 nt1_nt6 nt6_np13" />
    </vehicle>
    <vehicle depart="124.00" departPos="random_free" id="mf_5_0.29" type="type1">
        <route edges="nt1_nt6 nt6_np13" />
    </vehicle>
    <vehicle depart="125.00" departPos="random_free" id="mf_5_0.30" type="type1">
        <route edges="nt1_nt6 nt6_np13" />
    </vehicle>
    <vehicle depart="126.00" id="f_1_0.21" type="type1">
        <route edges="np2_nt1 nt1_npc npc_nt3 nt3_np6" />
    </vehicle>
    <vehicle depart="126.00" id="f_4_0.21" type="type1">
        <route edges="np9_nt4 nt4_nt5 nt5_nt6 nt6_np12" />
    </vehicle>
    <vehicle depart="128.00" departPos="random_free" id="mf_4_0.39" type="type1">
        <route edges="nt1_nt2 nt2_np4" />
    </vehicle>
    <vehicle depart="129.60" id="f_0_0.18" type="type1">
        <route edges="np1_nt1 nt1_nt6 nt6_np13" />
    </vehicle>
    <vehicle depart="131.00" departPos="random_free" id="mf_3_0.39" type="type1">
        <route edges="nt4_nt5 nt5_nt6 nt6_np12" />
    </vehicle>
    <vehicle depart="131.00" departPos="random_free" id="mf_4_0.40" type="type1">
        <route edges="nt1_nt2 nt2_np4" />
    </vehicle>
    <vehicle depart="132.00" id="f_1_0.22" type="type1">
        <route edges="np2_nt1 nt1_npc npc_nt5 nt5_np11" />
    </vehicle>
    <vehicle depart="132.00" id="f_4_0.22" type="type1">
        <route edges="np9_nt4 nt4_nt3 nt3_np6" />
    </vehicle>
    <vehicle depart="132.00" departPos="random_free" id="mf_3_0.40" type="type1">
        <route edges="nt4_nt5 nt5_nt6 nt6_np12" />
    </vehicle>
    <vehicle depart="133.00" departPos="random_free" id="mf_5_0.31" type="type1">
        <route edges="nt1_nt6 nt6_np13" />
    </vehicle>
    <vehicle depart="134.00" departPos="random_free" id="mf_4_0.41" type="type1">
        <route edges="nt1_nt2 nt2_np4" />
    </vehicle>
    <vehicle depart="135.00" departPos="random_free" id="mf_3_0.41" type="type1">
        <route edges="nt4_nt5 nt5_nt6 nt6_np12" />
    </vehicle>
    <vehicle depart="136.00" departPos="random_free" id="mf_3_0.42" type="type1">
        <route edges="nt4_nt5 nt5_nt6 nt6_np12" />
    </vehicle>
    <vehicle depart="136.00" departPos="random_free" id="mf_4_0.42" type="type1">
        <route edges="nt1_nt2 nt2_np4" />
    </vehicle>
    <vehicle depart="136.80" id="f_0_0.19" type="type1">
        <route edges="np1_nt1 nt1_nt6 nt6_np13" />
    </vehicle>
    <vehicle depart="137.00" departPos="random_free" id="mf_3_0.43" type="type1">
        <route edges="nt4_nt5 nt5_nt6 nt6_np12" />
    </vehicle>
    <vehicle depart="138.00" id="f_1_0.23" type="type1">
        <route edges="np2_nt1 nt1_nt2 nt2_np4" />
    </vehicle>
    <vehicle depart="138.00" id="f_4_0.23" type="type1">
        <route edges="np9_nt4 nt4_nt3 nt3_nt2 nt2_np5" />
    </vehicle>
    <vehicle depart="141.00" departPos="random_free" id="mf_4_0.43" type="type1">
        <route edges="nt1_nt2 nt2_np4" />
    </vehicle>
    <vehicle depart="142.00" departPos="random_free" id="mf_3_0.44" type="type1">
        <route edges="nt4_nt5 nt5_nt6 nt6_np12" />
    </vehicle>
    <vehicle depart="142.00" departPos="random_free" id="mf_4_0.44" type="type1">
        <route edges="nt1_nt2 nt2_np4" />
    </vehicle>
    <vehicle depart="143.00" departPos="random_free" id="mf_5_0.32" type="type1">
        <route edges="nt1_nt6 nt6_np13" />
    </vehicle>
    <vehicle depart="144.00" id="f_0_0.20" type="type1">
        <route edges="np1_nt1 nt1_nt6 nt6_np13" />
    </vehicle>
    <vehicle depart="144.00" id="f_1_0.24" type="type1">
        <route edges="np2_nt1 nt1_npc npc_nt5 nt5_np11" />
    </vehicle>
    <vehicle depart="144.00" id="f_2_0.4" type="type1">
        <route edges="np3_nt1 nt1_npc npc_nt3 nt3_nt2 nt2_np5" />
    </vehicle>
    <vehicle depart="144.00" id="f_3_0.4" type="type1">
        <route edges="np8_nt4 nt4_nt3 nt3_nt2 nt2_np5" />
    </vehicle>
    <vehicle depart="144.00" id="f_4_0.24" type="type1">
        <route edges="np9_nt4 nt4_nt5 nt5_nt6 nt6_np12" />
    </vehicle>
    <vehicle depart="144.00" departPos="random_free" id="mf_3_0.45" type="type1">
        <route edges="nt4_nt5 nt5_nt6 nt6_np12" />
    </vehicle>
    <vehicle depart="145.00" departPos="random_free" id="mf_3_0.46" type="type1">
        <route edges="nt4_nt5 nt5_nt6 nt6_np12" />
    </vehicle>
    <vehicle depart="146.00" departPos="random_free" id="mf_4_0.45" type="type1">
        <route edges="nt1_nt2 nt2_np4" />
    </vehicle>
    <vehicle depart="147.00" departPos="random_free" id="mf_3_0.47" type="type1">
        <route edges="nt4_nt5 nt5_nt6 nt6_np12" />
    </vehicle>
    <vehicle depart="147.00" departPos="random_free" id="mf_5_0.33" type="type1">
        <route edges="nt1_nt6 nt6_np13" />
    </vehicle>
    <vehicle depart="149.00" departPos="random_free" id="mf_4_0.46" type="type1">
        <route edges="nt1_nt2 nt2_np4" />
    </vehicle>
    <vehicle depart="149.00" departPos="random_free" id="mf_5_0.34" type="type1">
        <route edges="nt1_nt6 nt6_np13" />
    </vehicle>
    <vehicle depart="150.00" id="f_1_0.25" type="type1">
        <route edges="np2_nt1 nt1_npc npc_nt3 nt3_np6" />
    </vehicle>
    <vehicle depart="150.00" id="f_4_0.25" type="type1">
        <route edges="np9_nt4 nt4_nt5 nt5_nt6 nt6_np12" />
    </vehicle>
    <vehicle depart="150.00" departPos="random_free" id="mf_4_0.47" type="type1">
        <route edges="nt1_nt2 nt2_np4" />
    </vehicle>
    <vehicle depart="151.20" id="f_0_0.21" type="type1">
        <route edges="np1_nt1 nt1_nt6 nt6_np13" />
    </vehicle>
    <vehicle depart="153.00" departPos="random_free" id="mf_5_0.35" type="type1">
        <route edges="nt1_nt6 nt6_np13" />
    </vehicle>
    <vehicle depart="154.00" departPos="random_free" id="mf_3_0.48" type="type1">
        <route edges="nt4_nt5 nt5_nt6 nt6_np12" />
    </vehicle>
    <vehicle depart="155.00" departPos="random_free" id="mf_5_0.36" type="type1">
        <route edges="nt1_nt6 nt6_np13" />
    </vehicle>
    <vehicle depart="156.00" id="f_1_0.26" type="type1">
        <route edges="np2_nt1 nt1_npc npc_nt3 nt3_np6" />
    </vehicle>
    <vehicle depart="156.00" id="f_4_0.26" type="type1">
        <route edges="np9_nt4 nt4_nt3 nt3_nt2 nt2_np5" />
    </vehicle>